data_00001
_audit_creation_method   'DISCUS'

_data_chemical_name_common 'Au.cell: Pearson 85'

_cell_length_a             53.0257
_cell_length_b             57.1046
_cell_length_c             53.0257
_cell_angle_alpha     90.0000
_cell_angle_beta      90.0000
_cell_angle_gamma     90.0000

_symmetry_space_group_name_H-M   'P1              '

loop_
_atom_site_label
_atom_site_symbol
_atom_site_fract_x
_atom_site_fract_y
_atom_site_fract_z
_atom_site_u_iso_or_equiv
NI1   NI        0.383520    0.219944    0.062106     0.004307
NI2   NI        0.462348    0.274369    0.028869     0.004307
NI3   NI        0.575640    0.249799    0.062193     0.004307
NI4   NI        0.331376    0.292261    0.020189     0.004307
NI5   NI        0.372574    0.244436    0.025171     0.004307
NI6   NI        0.418228    0.328121    0.011987     0.004307
NI7   NI        0.422152    0.285831    0.039630     0.004307
NI8   NI        0.460175    0.321982    0.046991     0.004307
NI9   NI        0.502367    0.295118    0.041428     0.004307
NI10   NI        0.538278    0.327711    0.049847     0.004307
NI11   NI        0.569751    0.288652    0.042258     0.004307
NI12   NI        0.605202    0.334531    0.037706     0.004307
NI13   NI        0.262359    0.378613    0.025927     0.004307
NI14   NI        0.308004    0.397425    0.033337     0.004307
NI15   NI        0.340495    0.360286    0.019794     0.004307
NI16   NI        0.370815    0.401501    0.042458     0.004307
NI17   NI        0.456183    0.401760    0.036261     0.004307
NI18   NI        0.413958    0.365766    0.038816     0.004307
NI19   NI        0.461334    0.357928    0.013704     0.004307
NI20   NI        0.450846    0.434992    0.011764     0.004307
NI21   NI        0.504030    0.356333    0.044444     0.004307
NI22   NI        0.545486    0.370959    0.003890     0.004307
NI23   NI        0.541044    0.402605    0.047755     0.004307
NI24   NI        0.571782    0.362887    0.045998     0.004307
NI25   NI        0.662221    0.374458    0.039152     0.004307
NI26   NI        0.616163    0.398978    0.047704     0.004307
NI27   NI        0.276414    0.447363    0.043876     0.004307
NI28   NI        0.308688    0.479560    0.018724     0.004307
NI29   NI        0.407135    0.408577    0.012439     0.004307
NI30   NI        0.333577    0.437433    0.040015     0.004307
NI31   NI        0.360797    0.470466    0.041355     0.004307
NI32   NI        0.408989    0.445601    0.038204     0.004307
NI33   NI        0.436870    0.479431    0.000769     0.004307
NI34   NI        0.501309    0.391404    0.011585     0.004307
NI35   NI        0.450046    0.477786    0.046118     0.004307
NI36   NI        0.496071    0.434048    0.042242     0.004307
NI37   NI        0.491766    0.474628    0.025262     0.004307
NI38   NI        0.536636    0.426401    0.009891     0.004307
NI39   NI        0.575789    0.431307    0.049799     0.004307
NI40   NI        0.587927    0.415455    0.008911     0.004307
NI41   NI        0.570698    0.513884    0.050132     0.004307
NI42   NI        0.688228    0.441211    0.077037     0.004307
NI43   NI        0.255001    0.488302    0.037859     0.004307
NI44   NI        0.302004    0.542625    0.050946     0.004307
NI45   NI        0.338931    0.506533    0.051917     0.004307
NI46   NI        0.374824    0.539987    0.049337     0.004307
NI47   NI        0.413958    0.499619    0.037979     0.004307
NI48   NI        0.441968    0.537090    0.028791     0.004307
NI49   NI        0.487640    0.547881    0.025419     0.004307
NI50   NI        0.487181    0.511502    0.051161     0.004307
NI51   NI        0.535491    0.543679    0.053146     0.004307
NI52   NI        0.546833    0.474888    0.025315     0.004307
NI53   NI        0.522192    0.514293    0.009581     0.004307
NI54   NI        0.606927    0.471276    0.037693     0.004307
NI55   NI        0.340357    0.539861    0.019990     0.004307
NI56   NI        0.330998    0.617978    0.085279     0.004307
NI57   NI        0.412385    0.574368    0.053095     0.004307
NI58   NI        0.442480    0.613376    0.022278     0.004307
NI59   NI        0.490192    0.591713    0.051562     0.004307
NI60   NI        0.529657    0.612419    0.038099     0.004307
NI61   NI        0.568677    0.578857    0.040159     0.004307
NI62   NI        0.299591    0.207237    0.099331     0.004307
NI63   NI        0.341130    0.172917    0.085014     0.004307
NI64   NI        0.418922    0.189480    0.072667     0.004307
NI65   NI        0.416145    0.139237    0.124454     0.004307
NI66   NI        0.458309    0.206320    0.096170     0.004307
NI67   NI        0.489998    0.173756    0.089945     0.004307
NI68   NI        0.492495    0.205671    0.048424     0.004307
NI69   NI        0.573207    0.164110    0.097610     0.004307
NI70   NI        0.571196    0.194830    0.140345     0.004307
NI71   NI        0.222154    0.264824    0.112192     0.004307
NI72   NI        0.262645    0.245274    0.088886     0.004307
NI73   NI        0.291783    0.248654    0.050299     0.004307
NI74   NI        0.301600    0.261416    0.098712     0.004307
NI75   NI        0.348755    0.234165    0.094784     0.004307
NI76   NI        0.337965    0.263150    0.057294     0.004307
NI77   NI        0.379002    0.195778    0.102041     0.004307
NI78   NI        0.385382    0.256674    0.114944     0.004307
NI79   NI        0.419056    0.226506    0.106566     0.004307
NI80   NI        0.404576    0.257159    0.073328     0.004307
NI81   NI        0.452162    0.231818    0.056187     0.004307
NI82   NI        0.455146    0.252821    0.108516     0.004307
NI83   NI        0.497318    0.226890    0.097263     0.004307
NI84   NI        0.494226    0.254089    0.063292     0.004307
NI85   NI        0.543402    0.205887    0.090096     0.004307
NI86   NI        0.537614    0.253497    0.099439     0.004307
NI87   NI        0.582241    0.227638    0.106080     0.004307
NI88   NI        0.580609    0.206271    0.058999     0.004307
NI89   NI        0.618416    0.257408    0.108736     0.004307
NI90   NI        0.647614    0.224708    0.100791     0.004307
NI91   NI        0.636497    0.254101    0.066342     0.004307
NI92   NI        0.692438    0.285885    0.093602     0.004307
NI93   NI        0.216667    0.296199    0.064863     0.004307
NI94   NI        0.219946    0.331008    0.092403     0.004307
NI95   NI        0.260300    0.288870    0.101293     0.004307
NI96   NI        0.259995    0.323090    0.061021     0.004307
NI97   NI        0.300229    0.291275    0.056629     0.004307
NI98   NI        0.307294    0.327902    0.096895     0.004307
NI99   NI        0.343837    0.286583    0.102830     0.004307
NI100   NI        0.338413    0.325835    0.056828     0.004307
NI101   NI        0.378203    0.290525    0.056109     0.004307
AU102   AU        0.378040    0.327741    0.100214     0.007504
NI103   NI        0.420632    0.290943    0.104833     0.004307
NI104   NI        0.410045    0.326386    0.064288     0.004307
NI105   NI        0.454041    0.288160    0.072214     0.004307
AU106   AU        0.456580    0.327270    0.098560     0.007504
NI107   NI        0.492738    0.287619    0.098056     0.004307
NI108   NI        0.496515    0.323848    0.074750     0.004307
NI109   NI        0.534575    0.291228    0.077773     0.004307
AU110   AU        0.535860    0.327534    0.102319     0.007504
NI111   NI        0.574463    0.287532    0.103299     0.004307
NI112   NI        0.579611    0.326061    0.088561     0.004307
NI113   NI        0.614442    0.295144    0.079056     0.004307
NI114   NI        0.620963    0.330058    0.111526     0.004307
NI115   NI        0.649365    0.295442    0.114435     0.004307
NI116   NI        0.651628    0.340743    0.069688     0.004307
NI117   NI        0.688462    0.330016    0.099224     0.004307
NI118   NI        0.722656    0.331192    0.133604     0.004307
NI119   NI        0.156167    0.399741    0.123389     0.004307
NI120   NI        0.180042    0.361630    0.101511     0.004307
NI121   NI        0.181886    0.404769    0.069626     0.004307
NI122   NI        0.227478    0.364661    0.055420     0.004307
NI123   NI        0.226144    0.393206    0.095265     0.004307
NI124   NI        0.262240    0.360789    0.097923     0.004307
NI125   NI        0.260559    0.398658    0.066995     0.004307
NI126   NI        0.303193    0.364045    0.063645     0.004307
NI127   NI        0.296005    0.395053    0.103657     0.004307
AU128   AU        0.343676    0.360008    0.100107     0.007504
NI129   NI        0.335579    0.398056    0.079073     0.004307
NI130   NI        0.373727    0.361432    0.062149     0.004307
AU131   AU        0.380264    0.399297    0.100284     0.007504
AU132   AU        0.416271    0.363293    0.098666     0.007504
NI133   NI        0.415834    0.402213    0.065765     0.004307
NI134   NI        0.457920    0.363389    0.062548     0.004307
AU135   AU        0.455483    0.399753    0.098421     0.007504
AU136   AU        0.492826    0.363998    0.099277     0.007504
NI137   NI        0.496998    0.398633    0.067422     0.004307
NI138   NI        0.539091    0.366335    0.076177     0.004307
AU139   AU        0.531971    0.400887    0.101599     0.007504
AU140   AU        0.569921    0.364910    0.114246     0.007504
NI141   NI        0.575050    0.396057    0.079705     0.004307
NI142   NI        0.608669    0.358271    0.079299     0.004307
NI143   NI        0.608381    0.400600    0.113835     0.004307
NI144   NI        0.654323    0.362506    0.112753     0.004307
NI145   NI        0.655197    0.400325    0.079253     0.004307
NI146   NI        0.687596    0.369584    0.075951     0.004307
NI147   NI        0.687657    0.404632    0.112683     0.004307
NI148   NI        0.730438    0.370908    0.109092     0.004307
NI149   NI        0.720246    0.404165    0.073808     0.004307
NI150   NI        0.759199    0.408495    0.112210     0.004307
NI151   NI        0.144738    0.465161    0.099353     0.004307
NI152   NI        0.185412    0.430608    0.106753     0.004307
NI153   NI        0.186867    0.467046    0.072960     0.004307
NI154   NI        0.219739    0.436382    0.075745     0.004307
NI155   NI        0.220153    0.465005    0.112849     0.004307
NI156   NI        0.257515    0.430339    0.106062     0.004307
NI157   NI        0.261719    0.469992    0.083399     0.004307
NI158   NI        0.300320    0.435894    0.086707     0.004307
NI159   NI        0.296392    0.474257    0.111489     0.004307
AU160   AU        0.342332    0.432821    0.110735     0.007504
NI161   NI        0.334211    0.471724    0.087680     0.004307
NI162   NI        0.371004    0.439731    0.071396     0.004307
AU163   AU        0.379200    0.469182    0.107715     0.007504
AU164   AU        0.414916    0.435805    0.099444     0.007504
NI165   NI        0.413493    0.474264    0.075371     0.004307
NI166   NI        0.452696    0.437612    0.069046     0.004307
AU167   AU        0.455348    0.469632    0.101404     0.007504
AU168   AU        0.494258    0.435224    0.099101     0.007504
NI169   NI        0.492886    0.471797    0.072082     0.004307
NI170   NI        0.534705    0.440755    0.068681     0.004307
AU171   AU        0.532646    0.469461    0.104542     0.007504
AU172   AU        0.570829    0.434528    0.102287     0.007504
NI173   NI        0.573110    0.473308    0.070180     0.004307
NI174   NI        0.616185    0.436060    0.074561     0.004307
NI175   NI        0.607525    0.471906    0.103846     0.004307
NI176   NI        0.650317    0.431909    0.110676     0.004307
NI177   NI        0.649455    0.472310    0.083236     0.004307
NI178   NI        0.690365    0.476531    0.107310     0.004307
NI179   NI        0.670228    0.506339    0.057485     0.004307
NI180   NI        0.719055    0.440021    0.113267     0.004307
NI181   NI        0.727211    0.496085    0.073735     0.004307
NI182   NI        0.758610    0.465318    0.109791     0.004307
NI183   NI        0.174497    0.505249    0.100590     0.004307
NI184   NI        0.219144    0.497109    0.072013     0.004307
NI185   NI        0.220232    0.542915    0.099635     0.004307
NI186   NI        0.263472    0.508824    0.108941     0.004307
NI187   NI        0.263026    0.549416    0.073832     0.004307
NI188   NI        0.293683    0.501968    0.069686     0.004307
NI189   NI        0.295034    0.541471    0.102829     0.004307
NI190   NI        0.334971    0.508561    0.105775     0.004307
NI191   NI        0.339630    0.545934    0.082365     0.004307
NI192   NI        0.375794    0.504451    0.079272     0.004307
AU193   AU        0.375947    0.542590    0.114291     0.007504
AU194   AU        0.417781    0.503634    0.112625     0.007504
NI195   NI        0.414426    0.537471    0.080243     0.004307
NI196   NI        0.448712    0.508264    0.077623     0.004307
AU197   AU        0.452952    0.542690    0.107912     0.007504
AU198   AU        0.495238    0.504764    0.101405     0.007504
NI199   NI        0.493313    0.549976    0.080243     0.004307
NI200   NI        0.530861    0.499174    0.066451     0.004307
NI201   NI        0.528436    0.537193    0.105058     0.004307
AU202   AU        0.570616    0.503923    0.100583     0.007504
NI203   NI        0.571979    0.546154    0.084294     0.004307
NI204   NI        0.615224    0.507155    0.074906     0.004307
NI205   NI        0.613504    0.543888    0.110842     0.004307
NI206   NI        0.649943    0.509926    0.115672     0.004307
NI207   NI        0.649041    0.544162    0.079975     0.004307
NI208   NI        0.692457    0.550606    0.070864     0.004307
NI209   NI        0.683064    0.542237    0.118608     0.004307
NI210   NI        0.780616    0.546290    0.125767     0.004307
NI211   NI        0.190601    0.579723    0.090006     0.004307
NI212   NI        0.221346    0.613857    0.111984     0.004307
NI213   NI        0.254499    0.580756    0.107470     0.004307
NI214   NI        0.259413    0.654368    0.105767     0.004307
NI215   NI        0.297869    0.582043    0.081319     0.004307
NI216   NI        0.294188    0.617300    0.113818     0.004307
NI217   NI        0.333812    0.578189    0.107842     0.004307
NI218   NI        0.330933    0.578563    0.051697     0.004307
NI219   NI        0.374483    0.574661    0.081652     0.004307
NI220   NI        0.378759    0.614756    0.105910     0.004307
NI221   NI        0.415605    0.576507    0.106436     0.004307
NI222   NI        0.415653    0.616053    0.075187     0.004307
NI223   NI        0.458749    0.586147    0.081860     0.004307
NI224   NI        0.450415    0.618891    0.108444     0.004307
NI225   NI        0.493632    0.581390    0.110200     0.004307
NI226   NI        0.496781    0.617135    0.087800     0.004307
NI227   NI        0.537568    0.579482    0.083427     0.004307
NI228   NI        0.537791    0.617597    0.109690     0.004307
NI229   NI        0.574375    0.581435    0.113405     0.004307
NI230   NI        0.580443    0.619091    0.076075     0.004307
NI231   NI        0.612744    0.573027    0.076405     0.004307
NI232   NI        0.614325    0.608264    0.110467     0.004307
NI233   NI        0.648526    0.576289    0.114109     0.004307
NI234   NI        0.644790    0.607023    0.067271     0.004307
NI235   NI        0.695176    0.581970    0.105680     0.004307
NI236   NI        0.733341    0.554726    0.113255     0.004307
NI237   NI        0.260748    0.697615    0.138873     0.004307
NI238   NI        0.291769    0.682824    0.101331     0.004307
NI239   NI        0.338009    0.653025    0.115240     0.004307
NI240   NI        0.367389    0.609393    0.053838     0.004307
NI241   NI        0.376726    0.685232    0.115025     0.004307
NI242   NI        0.417204    0.651248    0.103863     0.004307
NI243   NI        0.376000    0.654131    0.081697     0.004307
NI244   NI        0.444738    0.643819    0.058479     0.004307
NI245   NI        0.448098    0.689307    0.114881     0.004307
NI246   NI        0.492950    0.657749    0.113627     0.004307
NI247   NI        0.486098    0.696540    0.089174     0.004307
NI248   NI        0.527693    0.646150    0.076905     0.004307
NI249   NI        0.537063    0.685829    0.097138     0.004307
NI250   NI        0.565497    0.648812    0.111532     0.004307
NI251   NI        0.643286    0.652041    0.113796     0.004307
NI252   NI        0.677937    0.621100    0.108711     0.004307
NI253   NI        0.419071    0.723032    0.115500     0.004307
NI254   NI        0.416995    0.687321    0.078148     0.004307
NI255   NI        0.300134    0.143656    0.162567     0.004307
NI256   NI        0.382429    0.128077    0.162201     0.004307
NI257   NI        0.380913    0.101187    0.208415     0.004307
NI258   NI        0.425183    0.114140    0.193359     0.004307
NI259   NI        0.460795    0.136956    0.170151     0.004307
NI260   NI        0.506707    0.114465    0.146410     0.004307
NI261   NI        0.584565    0.129453    0.163022     0.004307
NI262   NI        0.535974    0.141263    0.168518     0.004307
NI263   NI        0.630324    0.154778    0.155300     0.004307
NI264   NI        0.220013    0.191541    0.185442     0.004307
NI265   NI        0.258944    0.162009    0.185546     0.004307
NI266   NI        0.249732    0.192873    0.144789     0.004307
NI267   NI        0.310430    0.168828    0.125963     0.004307
NI268   NI        0.296994    0.193754    0.180896     0.004307
NI269   NI        0.337278    0.179954    0.162907     0.004307
NI270   NI        0.340580    0.202774    0.127315     0.004307
NI271   NI        0.378840    0.165123    0.133362     0.004307
NI272   NI        0.381157    0.189626    0.175143     0.004307
NI273   NI        0.419873    0.162426    0.170234     0.004307
NI274   NI        0.421868    0.192384    0.133537     0.004307
NI275   NI        0.465266    0.172520    0.132029     0.004307
NI276   NI        0.459392    0.183597    0.179864     0.004307
NI277   NI        0.498559    0.166666    0.169133     0.004307
NI278   NI        0.497088    0.202535    0.133620     0.004307
NI279   NI        0.525218    0.168830    0.126128     0.004307
NI280   NI        0.532051    0.193623    0.170984     0.004307
NI281   NI        0.572431    0.134890    0.211059     0.004307
NI282   NI        0.572221    0.169197    0.178321     0.004307
NI283   NI        0.610071    0.194749    0.105533     0.004307
NI284   NI        0.609705    0.197388    0.174510     0.004307
NI285   NI        0.673399    0.156392    0.186497     0.004307
NI286   NI        0.657901    0.196398    0.144161     0.004307
NI287   NI        0.653880    0.187821    0.218387     0.004307
NI288   NI        0.160373    0.257519    0.186785     0.004307
NI289   NI        0.195869    0.228443    0.181985     0.004307
NI290   NI        0.178017    0.259974    0.142393     0.004307
NI291   NI        0.223493    0.231945    0.140152     0.004307
NI292   NI        0.224123    0.261821    0.178001     0.004307
NI293   NI        0.258456    0.223059    0.177963     0.004307
NI294   NI        0.268196    0.255139    0.137965     0.004307
NI295   NI        0.295361    0.219767    0.141938     0.004307
AU296   AU        0.301459    0.257224    0.177649     0.007504
AU297   AU        0.340235    0.221298    0.178622     0.007504
NI298   NI        0.339102    0.258874    0.140469     0.004307
NI299   NI        0.378813    0.220364    0.141141     0.004307
AU300   AU        0.378546    0.255990    0.178671     0.007504
AU301   AU        0.416924    0.219677    0.176994     0.007504
NI302   NI        0.418986    0.256189    0.143438     0.004307
NI303   NI        0.459002    0.224115    0.140668     0.004307
AU304   AU        0.456586    0.254309    0.177232     0.007504
AU305   AU        0.494558    0.220928    0.178352     0.007504
AU306   AU        0.497006    0.255403    0.137490     0.007504
NI307   NI        0.538773    0.223681    0.136881     0.004307
AU308   AU        0.532965    0.255182    0.176927     0.007504
AU309   AU        0.571795    0.223332    0.178408     0.007504
AU310   AU        0.574010    0.257012    0.139648     0.007504
NI311   NI        0.613613    0.227576    0.140938     0.004307
AU312   AU        0.611295    0.256250    0.178957     0.007504
NI313   NI        0.648098    0.227494    0.180030     0.004307
NI314   NI        0.651088    0.260645    0.145175     0.004307
NI315   NI        0.696735    0.218536    0.169859     0.004307
NI316   NI        0.690157    0.264568    0.178585     0.004307
NI317   NI        0.735600    0.215010    0.202824     0.004307
NI318   NI        0.736576    0.224729    0.124332     0.004307
NI319   NI        0.739931    0.252657    0.172221     0.004307
NI320   NI        0.125571    0.292188    0.176954     0.004307
NI321   NI        0.153180    0.297925    0.130492     0.004307
NI322   NI        0.159950    0.332517    0.174081     0.004307
NI323   NI        0.184376    0.293842    0.172424     0.004307
NI324   NI        0.186056    0.327138    0.135139     0.004307
NI325   NI        0.222028    0.299547    0.137966     0.004307
AU326   AU        0.226050    0.325738    0.177180     0.007504
AU327   AU        0.266443    0.292583    0.175223     0.007504
NI328   NI        0.261507    0.323907    0.137063     0.004307
AU329   AU        0.302262    0.292376    0.140261     0.007504
AU330   AU        0.301046    0.329749    0.177978     0.007504
AU331   AU        0.342751    0.292928    0.177831     0.007504
AU332   AU        0.337739    0.327569    0.138517     0.007504
AU333   AU        0.378204    0.293550    0.136939     0.007504
AU334   AU        0.379231    0.329414    0.174032     0.007504
AU335   AU        0.421127    0.291490    0.175618     0.007504
AU336   AU        0.416597    0.326704    0.135261     0.007504
AU337   AU        0.456377    0.291157    0.136302     0.007504
AU338   AU        0.455656    0.328162    0.174410     0.007504
AU339   AU        0.493225    0.289223    0.174362     0.007504
AU340   AU        0.492960    0.329107    0.138938     0.007504
AU341   AU        0.532706    0.292856    0.135807     0.007504
AU342   AU        0.535010    0.327304    0.174240     0.007504
AU343   AU        0.570936    0.293565    0.176997     0.007504
AU344   AU        0.573685    0.328352    0.138842     0.007504
AU345   AU        0.609508    0.290618    0.139643     0.007504
AU346   AU        0.611796    0.327231    0.174594     0.007504
AU347   AU        0.650182    0.293351    0.177846     0.007504
NI348   NI        0.654745    0.329627    0.143616     0.004307
NI349   NI        0.690032    0.297670    0.138850     0.004307
AU350   AU        0.689900    0.328068    0.177410     0.007504
NI351   NI        0.698079    0.250116    0.133183     0.004307
NI352   NI        0.725903    0.294177    0.174153     0.004307
NI353   NI        0.759686    0.301786    0.144040     0.004307
NI354   NI        0.762187    0.330881    0.177033     0.004307
NI355   NI        0.828766    0.299141    0.210796     0.004307
NI356   NI        0.081101    0.403984    0.189866     0.004307
NI357   NI        0.124069    0.357449    0.172871     0.004307
NI358   NI        0.119034    0.400892    0.157816     0.004307
NI359   NI        0.185352    0.295133    0.098810     0.004307
NI360   NI        0.165515    0.394850    0.169589     0.004307
NI361   NI        0.191913    0.362626    0.174482     0.004307
NI362   NI        0.200378    0.395129    0.134005     0.004307
NI363   NI        0.226576    0.358927    0.134937     0.004307
AU364   AU        0.225035    0.400102    0.175806     0.007504
AU365   AU        0.263699    0.363899    0.175295     0.007504
AU366   AU        0.261704    0.396600    0.138602     0.007504
AU367   AU        0.300648    0.362229    0.138141     0.007504
AU368   AU        0.301895    0.399269    0.175523     0.007504
AU369   AU        0.338255    0.364752    0.175085     0.007504
AU370   AU        0.339637    0.395865    0.134443     0.007504
AU371   AU        0.379809    0.362777    0.138585     0.007504
AU372   AU        0.377958    0.398114    0.177250     0.007504
AU373   AU        0.418333    0.364239    0.175203     0.007504
AU374   AU        0.416229    0.399225    0.135883     0.007504
AU375   AU        0.455842    0.365378    0.135495     0.007504
AU376   AU        0.457094    0.397798    0.177457     0.007504
AU377   AU        0.494309    0.362372    0.174922     0.007504
AU378   AU        0.492534    0.398088    0.134123     0.007504
AU379   AU        0.530242    0.363397    0.137633     0.007504
AU380   AU        0.534096    0.398809    0.175975     0.007504
AU381   AU        0.571045    0.362933    0.171741     0.007504
AU382   AU        0.571477    0.403036    0.138169     0.007504
AU383   AU        0.612871    0.364234    0.138729     0.007504
AU384   AU        0.611378    0.398870    0.176072     0.007504
AU385   AU        0.650428    0.363223    0.176139     0.007504
AU386   AU        0.650303    0.399973    0.142556     0.007504
NI387   NI        0.690435    0.366320    0.139751     0.004307
AU388   AU        0.686222    0.399012    0.176630     0.007504
NI389   NI        0.727757    0.365178    0.172259     0.004307
NI390   NI        0.723360    0.401261    0.143707     0.004307
NI391   NI        0.769792    0.352565    0.134482     0.004307
NI392   NI        0.764378    0.397858    0.169999     0.004307
NI393   NI        0.806185    0.363644    0.172663     0.004307
NI394   NI        0.830814    0.401073    0.188940     0.004307
NI395   NI        0.857994    0.399832    0.229362     0.004307
NI396   NI        0.040027    0.478467    0.215875     0.004307
NI397   NI        0.123005    0.442263    0.183537     0.004307
NI398   NI        0.092693    0.453556    0.148373     0.004307
NI399   NI        0.142168    0.437005    0.140720     0.004307
NI400   NI        0.155186    0.475905    0.179855     0.004307
NI401   NI        0.182800    0.434746    0.178511     0.004307
NI402   NI        0.184354    0.472892    0.138490     0.004307
NI403   NI        0.219891    0.433247    0.144715     0.004307
AU404   AU        0.223141    0.471718    0.177341     0.007504
AU405   AU        0.263802    0.433173    0.173296     0.007504
AU406   AU        0.259609    0.470117    0.140141     0.007504
AU407   AU        0.300840    0.433823    0.137689     0.007504
AU408   AU        0.298207    0.470224    0.174728     0.007504
AU409   AU        0.336737    0.435874    0.176458     0.007504
AU410   AU        0.337380    0.469701    0.139609     0.007504
AU411   AU        0.381191    0.434193    0.140212     0.007504
AU412   AU        0.377488    0.469813    0.175901     0.007504
AU413   AU        0.416537    0.432836    0.175332     0.007504
AU414   AU        0.416449    0.469059    0.140665     0.007504
AU415   AU        0.453765    0.433806    0.135638     0.007504
AU416   AU        0.453565    0.469387    0.176774     0.007504
AU417   AU        0.493622    0.434669    0.175937     0.007504
AU418   AU        0.493610    0.471909    0.136283     0.007504
AU419   AU        0.530556    0.434686    0.137524     0.007504
AU420   AU        0.531059    0.468633    0.173629     0.007504
AU421   AU        0.572071    0.436006    0.174539     0.007504
AU422   AU        0.572317    0.470192    0.137424     0.007504
AU423   AU        0.612524    0.437279    0.140830     0.007504
AU424   AU        0.609889    0.469765    0.176146     0.007504
AU425   AU        0.650478    0.436182    0.178056     0.007504
AU426   AU        0.648094    0.471582    0.138998     0.007504
NI427   NI        0.685143    0.439311    0.142284     0.004307
AU428   AU        0.684519    0.469676    0.178495     0.007504
NI429   NI        0.722753    0.435135    0.181294     0.004307
NI430   NI        0.724631    0.472198    0.143253     0.004307
NI431   NI        0.756038    0.440127    0.147304     0.004307
NI432   NI        0.755974    0.474638    0.176626     0.004307
NI433   NI        0.792245    0.436064    0.185987     0.004307
NI434   NI        0.807980    0.399874    0.136292     0.004307
NI435   NI        0.793237    0.462698    0.147000     0.004307
NI436   NI        0.063525    0.539797    0.194950     0.004307
NI437   NI        0.152064    0.505496    0.143047     0.004307
NI438   NI        0.150254    0.534355    0.181477     0.004307
NI439   NI        0.192842    0.506765    0.177771     0.004307
NI440   NI        0.185809    0.540398    0.141863     0.004307
NI441   NI        0.222335    0.510879    0.139465     0.004307
AU442   AU        0.225941    0.543884    0.177862     0.007504
AU443   AU        0.262072    0.505891    0.175814     0.007504
AU444   AU        0.264126    0.544034    0.138749     0.007504
AU445   AU        0.300309    0.506713    0.141238     0.007504
AU446   AU        0.300634    0.542349    0.177279     0.007504
AU447   AU        0.338115    0.506980    0.173566     0.007504
AU448   AU        0.335237    0.542583    0.139286     0.007504
AU449   AU        0.377669    0.504130    0.139721     0.007504
AU450   AU        0.376021    0.545002    0.170653     0.007504
AU451   AU        0.417944    0.507370    0.173913     0.007504
AU452   AU        0.415346    0.541002    0.139237     0.007504
AU453   AU        0.456703    0.504961    0.138477     0.007504
AU454   AU        0.455132    0.544752    0.176143     0.007504
AU455   AU        0.493323    0.506852    0.176540     0.007504
AU456   AU        0.494286    0.540746    0.137618     0.007504
AU457   AU        0.532715    0.506278    0.137014     0.007504
AU458   AU        0.533157    0.543593    0.172186     0.007504
AU459   AU        0.568994    0.507225    0.174684     0.007504
AU460   AU        0.570433    0.542522    0.137689     0.007504
AU461   AU        0.608003    0.504299    0.140514     0.007504
AU462   AU        0.606363    0.542081    0.179570     0.007504
AU463   AU        0.645513    0.504888    0.176960     0.007504
NI464   NI        0.642450    0.543448    0.147496     0.004307
NI465   NI        0.686121    0.501642    0.148245     0.004307
AU466   AU        0.677892    0.539095    0.183173     0.007504
NI467   NI        0.715906    0.502340    0.179879     0.004307
NI468   NI        0.717346    0.536285    0.153123     0.004307
NI469   NI        0.792862    0.545167    0.171247     0.004307
NI470   NI        0.749141    0.542646    0.185590     0.004307
NI471   NI        0.791889    0.502801    0.183658     0.004307
NI472   NI        0.138032    0.579638    0.163629     0.004307
NI473   NI        0.107497    0.517637    0.159941     0.004307
NI474   NI        0.151983    0.614287    0.188771     0.004307
NI475   NI        0.188774    0.570949    0.173903     0.004307
NI476   NI        0.190757    0.614641    0.151265     0.004307
NI477   NI        0.222532    0.573727    0.140481     0.004307
NI478   NI        0.225521    0.608022    0.180448     0.004307
AU479   AU        0.264338    0.578688    0.174414     0.007504
NI480   NI        0.258558    0.609377    0.143023     0.004307
AU481   AU        0.299050    0.578626    0.140934     0.007504
AU482   AU        0.300614    0.614515    0.175014     0.007504
AU483   AU        0.337247    0.577368    0.175797     0.007504
AU484   AU        0.337437    0.614213    0.137109     0.007504
AU485   AU        0.375973    0.581274    0.139194     0.007504
AU486   AU        0.373504    0.615677    0.175097     0.007504
AU487   AU        0.414785    0.580106    0.175166     0.007504
AU488   AU        0.414465    0.616651    0.141052     0.007504
AU489   AU        0.454850    0.580441    0.138995     0.007504
AU490   AU        0.453269    0.615844    0.175907     0.007504
AU491   AU        0.494222    0.579544    0.175280     0.007504
AU492   AU        0.493194    0.617612    0.138646     0.007504
AU493   AU        0.530761    0.579297    0.137970     0.007504
AU494   AU        0.532273    0.616579    0.176585     0.007504
AU495   AU        0.568922    0.580605    0.175854     0.007504
NI496   NI        0.566957    0.614167    0.141662     0.004307
AU497   AU        0.608089    0.579315    0.149281     0.007504
AU498   AU        0.609880    0.615894    0.176549     0.007504
AU499   AU        0.642848    0.577247    0.181707     0.007504
NI500   NI        0.647261    0.610958    0.146516     0.004307
NI501   NI        0.679710    0.572555    0.149731     0.004307
NI502   NI        0.682488    0.610063    0.188414     0.004307
NI503   NI        0.715158    0.570869    0.183568     0.004307
NI504   NI        0.718168    0.605470    0.147933     0.004307
NI505   NI        0.749396    0.575065    0.149515     0.004307
NI506   NI        0.773885    0.644334    0.182552     0.004307
NI507   NI        0.750042    0.603487    0.188024     0.004307
NI508   NI        0.189711    0.646990    0.188344     0.004307
NI509   NI        0.215926    0.686472    0.160093     0.004307
NI510   NI        0.226934    0.642396    0.146239     0.004307
NI511   NI        0.263894    0.641949    0.175995     0.004307
NI512   NI        0.266737    0.727587    0.171459     0.004307
NI513   NI        0.296623    0.654621    0.146187     0.004307
NI514   NI        0.296222    0.685548    0.178075     0.004307
AU515   AU        0.335469    0.650892    0.177023     0.007504
NI516   NI        0.338781    0.689184    0.143682     0.004307
NI517   NI        0.375044    0.651298    0.142505     0.004307
NI518   NI        0.380810    0.684835    0.180018     0.004307
AU519   AU        0.415366    0.651838    0.178347     0.007504
NI520   NI        0.413684    0.687120    0.148341     0.004307
NI521   NI        0.452012    0.655072    0.145300     0.004307
NI522   NI        0.450027    0.684076    0.181581     0.004307
AU523   AU        0.491955    0.651976    0.177159     0.007504
NI524   NI        0.488711    0.688211    0.149036     0.004307
NI525   NI        0.531387    0.649316    0.138891     0.004307
NI526   NI        0.528525    0.686664    0.183385     0.004307
NI527   NI        0.566619    0.650929    0.176097     0.004307
NI528   NI        0.559765    0.685003    0.144194     0.004307
NI529   NI        0.605421    0.649576    0.138933     0.004307
NI530   NI        0.603313    0.686512    0.172015     0.004307
NI531   NI        0.651073    0.642803    0.182061     0.004307
NI532   NI        0.649825    0.692867    0.167406     0.004307
NI533   NI        0.685933    0.647301    0.150293     0.004307
NI534   NI        0.685911    0.676017    0.183712     0.004307
NI535   NI        0.724700    0.641013    0.189617     0.004307
NI536   NI        0.158878    0.703309    0.214457     0.004307
NI537   NI        0.301156    0.722430    0.137398     0.004307
NI538   NI        0.306441    0.756799    0.174449     0.004307
NI539   NI        0.340692    0.727756    0.177936     0.004307
NI540   NI        0.373788    0.721850    0.141964     0.004307
NI541   NI        0.393241    0.760352    0.154462     0.004307
NI542   NI        0.410289    0.724312    0.180968     0.004307
NI543   NI        0.438548    0.755340    0.143956     0.004307
NI544   NI        0.450610    0.718164    0.158429     0.004307
NI545   NI        0.464894    0.758206    0.182242     0.004307
NI546   NI        0.493208    0.718295    0.185436     0.004307
NI547   NI        0.490805    0.736298    0.132715     0.004307
NI548   NI        0.528560    0.719562    0.150189     0.004307
NI549   NI        0.512923    0.753243    0.176128     0.004307
NI550   NI        0.565493    0.715630    0.175088     0.004307
NI551   NI        0.621994    0.736434    0.172940     0.004307
NI552   NI        0.604172    0.777570    0.200916     0.004307
NI553   NI        0.693258    0.708683    0.224327     0.004307
NI554   NI        0.407302    0.793629    0.188873     0.004307
NI555   NI        0.487621    0.800083    0.173269     0.004307
NI556   NI        0.355512    0.082428    0.248659     0.004307
NI557   NI        0.459368    0.062972    0.249859     0.004307
NI558   NI        0.539017    0.073107    0.238440     0.004307
NI559   NI        0.259792    0.098979    0.269482     0.004307
NI560   NI        0.310138    0.093771    0.260766     0.004307
NI561   NI        0.261064    0.124879    0.223932     0.004307
NI562   NI        0.297875    0.134695    0.254113     0.004307
NI563   NI        0.328993    0.061724    0.290688     0.004307
NI564   NI        0.342515    0.148200    0.191885     0.004307
NI565   NI        0.337725    0.111682    0.216851     0.004307
NI566   NI        0.376963    0.125748    0.251448     0.004307
NI567   NI        0.454195    0.090697    0.288029     0.004307
NI568   NI        0.418235    0.097278    0.249121     0.004307
NI569   NI        0.454923    0.086444    0.211139     0.004307
NI570   NI        0.459141    0.120799    0.246310     0.004307
NI571   NI        0.504472    0.101631    0.249921     0.004307
NI572   NI        0.497040    0.136632    0.207438     0.004307
NI573   NI        0.535089    0.100658    0.205570     0.004307
NI574   NI        0.537644    0.134651    0.247830     0.004307
NI575   NI        0.591072    0.096387    0.195779     0.004307
NI576   NI        0.628638    0.124375    0.208761     0.004307
NI577   NI        0.576694    0.103442    0.240271     0.004307
NI578   NI        0.623999    0.089185    0.236464     0.004307
NI579   NI        0.654242    0.082933    0.188921     0.004307
NI580   NI        0.689666    0.112853    0.266179     0.004307
NI581   NI        0.147449    0.203939    0.240620     0.004307
NI582   NI        0.181645    0.179746    0.222858     0.004307
NI583   NI        0.180438    0.148927    0.263336     0.004307
NI584   NI        0.219867    0.155548    0.222993     0.004307
NI585   NI        0.228548    0.193651    0.251345     0.004307
NI586   NI        0.260746    0.161918    0.248853     0.004307
NI587   NI        0.265699    0.196731    0.217490     0.004307
NI588   NI        0.299403    0.160379    0.212052     0.004307
AU589   AU        0.302956    0.186249    0.254259     0.007504
NI590   NI        0.340546    0.153440    0.252464     0.004307
AU591   AU        0.341787    0.186186    0.215729     0.007504
NI592   NI        0.382991    0.149465    0.214109     0.004307
AU593   AU        0.378482    0.184453    0.253807     0.007504
AU594   AU        0.417636    0.150641    0.255358     0.007504
AU595   AU        0.419582    0.184300    0.216269     0.007504
NI596   NI        0.452945    0.148564    0.215001     0.004307
AU597   AU        0.457576    0.185079    0.255948     0.007504
AU598   AU        0.494383    0.150962    0.254404     0.007504
AU599   AU        0.492439    0.186634    0.216618     0.007504
NI600   NI        0.535481    0.168769    0.207374     0.004307
AU601   AU        0.531347    0.186331    0.256348     0.007504
NI602   NI        0.575870    0.132742    0.283331     0.004307
NI603   NI        0.569581    0.197431    0.216383     0.004307
NI604   NI        0.613143    0.135729    0.253430     0.004307
NI605   NI        0.575714    0.168831    0.251162     0.004307
NI606   NI        0.611624    0.190660    0.258054     0.004307
NI607   NI        0.610841    0.171907    0.216518     0.004307
NI608   NI        0.684394    0.150029    0.234151     0.004307
NI609   NI        0.685825    0.191681    0.260766     0.004307
NI610   NI        0.721836    0.148568    0.266041     0.004307
NI611   NI        0.703935    0.186137    0.209815     0.004307
NI612   NI        0.742783    0.186298    0.249874     0.004307
NI613   NI        0.078871    0.264662    0.312014     0.004307
NI614   NI        0.107054    0.190875    0.296413     0.004307
NI615   NI        0.078099    0.246328    0.270517     0.004307
NI616   NI        0.123049    0.262767    0.217215     0.004307
NI617   NI        0.160240    0.255939    0.251523     0.004307
NI618   NI        0.194299    0.220026    0.250168     0.004307
NI619   NI        0.193648    0.261425    0.218980     0.004307
NI620   NI        0.223792    0.228220    0.215861     0.004307
AU621   AU        0.226809    0.257202    0.254794     0.007504
AU622   AU        0.262506    0.223395    0.255262     0.007504
AU623   AU        0.263504    0.258035    0.217294     0.007504
AU624   AU        0.302583    0.224144    0.217506     0.007504
AU625   AU        0.302420    0.257804    0.254316     0.007504
AU626   AU        0.339889    0.220389    0.254978     0.007504
AU627   AU        0.339444    0.256114    0.211669     0.007504
AU628   AU        0.381033    0.220708    0.214539     0.007504
AU629   AU        0.377382    0.256995    0.250367     0.007504
AU630   AU        0.419237    0.219449    0.253698     0.007504
AU631   AU        0.416845    0.255973    0.214542     0.007504
AU632   AU        0.455860    0.220974    0.215210     0.007504
AU633   AU        0.457348    0.258090    0.255855     0.007504
AU634   AU        0.497952    0.220446    0.254714     0.007504
AU635   AU        0.495162    0.255524    0.214259     0.007504
AU636   AU        0.530971    0.221847    0.217343     0.007504
AU637   AU        0.531983    0.259271    0.254228     0.007504
AU638   AU        0.570295    0.221048    0.257021     0.007504
AU639   AU        0.571446    0.254056    0.215204     0.007504
AU640   AU        0.610826    0.223620    0.216761     0.007504
AU641   AU        0.610199    0.256480    0.256441     0.007504
AU642   AU        0.647930    0.223384    0.255012     0.007504
AU643   AU        0.648628    0.258481    0.216401     0.007504
NI644   NI        0.687795    0.227742    0.219063     0.004307
AU645   AU        0.687926    0.256996    0.253808     0.007504
NI646   NI        0.724226    0.227041    0.254607     0.004307
NI647   NI        0.725303    0.264329    0.215461     0.004307
NI648   NI        0.736822    0.194707    0.163236     0.004307
NI649   NI        0.757240    0.260223    0.249813     0.004307
NI650   NI        0.786485    0.224406    0.250837     0.004307
NI651   NI        0.773849    0.250687    0.206462     0.004307
NI652   NI        0.873352    0.314449    0.265885     0.004307
NI653   NI        0.097375    0.323989    0.250305     0.004307
NI654   NI        0.126782    0.291437    0.247933     0.004307
NI655   NI        0.126294    0.332817    0.211196     0.004307
NI656   NI        0.155080    0.291953    0.210371     0.004307
NI657   NI        0.154999    0.325316    0.248606     0.004307
AU658   AU        0.185145    0.292659    0.253383     0.007504
AU659   AU        0.186701    0.326394    0.212522     0.007504
AU660   AU        0.224606    0.292482    0.216509     0.007504
AU661   AU        0.220976    0.329057    0.254731     0.007504
AU662   AU        0.263506    0.292240    0.253112     0.007504
AU663   AU        0.262010    0.326662    0.213996     0.007504
AU664   AU        0.301584    0.292833    0.213725     0.007504
AU665   AU        0.300543    0.329914    0.251248     0.007504
AU666   AU        0.342359    0.292387    0.251385     0.007504
AU667   AU        0.340333    0.329759    0.214310     0.007504
AU668   AU        0.380068    0.295257    0.214873     0.007504
AU669   AU        0.380715    0.326506    0.253187     0.007504
AU670   AU        0.418709    0.291385    0.255062     0.007504
AU671   AU        0.417188    0.326800    0.214515     0.007504
AU672   AU        0.457348    0.289850    0.212752     0.007504
AU673   AU        0.456906    0.327233    0.255045     0.007504
AU674   AU        0.493415    0.293977    0.254434     0.007504
AU675   AU        0.495340    0.324381    0.210810     0.007504
AU676   AU        0.532952    0.290478    0.213207     0.007504
AU677   AU        0.534873    0.327797    0.253135     0.007504
AU678   AU        0.572287    0.293287    0.256154     0.007504
AU679   AU        0.570774    0.326315    0.213410     0.007504
AU680   AU        0.609500    0.293137    0.212635     0.007504
AU681   AU        0.610388    0.328297    0.253994     0.007504
AU682   AU        0.649569    0.292207    0.253744     0.007504
AU683   AU        0.649622    0.328648    0.213110     0.007504
AU684   AU        0.688782    0.292774    0.215026     0.007504
AU685   AU        0.689260    0.327812    0.252168     0.007504
AU686   AU        0.725173    0.293198    0.253511     0.007504
AU687   AU        0.726081    0.325759    0.213240     0.007504
NI688   NI        0.759649    0.291748    0.209570     0.004307
NI689   NI        0.757877    0.327827    0.249143     0.004307
NI690   NI        0.790081    0.295414    0.249917     0.004307
NI691   NI        0.792266    0.330183    0.217096     0.004307
NI692   NI        0.825738    0.330004    0.254787     0.004307
NI693   NI        0.063506    0.396302    0.274783     0.004307
NI694   NI        0.086788    0.354685    0.206681     0.004307
NI695   NI        0.095491    0.395794    0.243362     0.004307
NI696   NI        0.133321    0.360727    0.247236     0.004307
NI697   NI        0.131007    0.400254    0.205256     0.004307
NI698   NI        0.160354    0.362418    0.208103     0.004307
AU699   AU        0.149680    0.403947    0.253023     0.007504
AU700   AU        0.184470    0.364281    0.253219     0.007504
AU701   AU        0.187575    0.398930    0.213430     0.007504
AU702   AU        0.226067    0.362487    0.214154     0.007504
AU703   AU        0.222394    0.399140    0.251755     0.007504
AU704   AU        0.262495    0.366132    0.254586     0.007504
AU705   AU        0.261186    0.399166    0.214118     0.007504
AU706   AU        0.302353    0.365755    0.214273     0.007504
AU707   AU        0.299220    0.400173    0.252981     0.007504
AU708   AU        0.338505    0.361285    0.253540     0.007504
AU709   AU        0.339089    0.401105    0.214807     0.007504
AU710   AU        0.379887    0.362937    0.215107     0.007504
AU711   AU        0.381748    0.401466    0.253531     0.007504
AU712   AU        0.417632    0.363284    0.254282     0.007504
AU713   AU        0.417133    0.399169    0.215672     0.007504
AU714   AU        0.457479    0.363320    0.213542     0.007504
AU715   AU        0.454684    0.399251    0.254639     0.007504
AU716   AU        0.495757    0.362532    0.253090     0.007504
AU717   AU        0.495818    0.397714    0.214850     0.007504
AU718   AU        0.537307    0.363962    0.212121     0.007504
AU719   AU        0.534128    0.397530    0.253245     0.007504
AU720   AU        0.571492    0.361854    0.252652     0.007504
AU721   AU        0.573791    0.399676    0.214307     0.007504
AU722   AU        0.614755    0.364778    0.215394     0.007504
AU723   AU        0.613045    0.399018    0.252776     0.007504
AU724   AU        0.650231    0.361512    0.254143     0.007504
AU725   AU        0.651744    0.399161    0.214579     0.007504
AU726   AU        0.690436    0.362329    0.211527     0.007504
AU727   AU        0.689418    0.399277    0.252700     0.007504
AU728   AU        0.728067    0.366199    0.253658     0.007504
AU729   AU        0.725615    0.400229    0.215127     0.007504
NI730   NI        0.754367    0.363569    0.210385     0.004307
AU731   AU        0.762945    0.402411    0.255177     0.007504
NI732   NI        0.784969    0.361338    0.248798     0.004307
NI733   NI        0.780450    0.400376    0.210614     0.004307
NI734   NI        0.827732    0.360847    0.216045     0.004307
NI735   NI        0.815398    0.399700    0.250182     0.004307
NI736   NI        0.850276    0.370835    0.260481     0.004307
NI737   NI        0.062575    0.429239    0.244101     0.004307
NI738   NI        0.076473    0.446006    0.204762     0.004307
NI739   NI        0.093496    0.476302    0.254572     0.004307
NI740   NI        0.110462    0.435107    0.247660     0.004307
NI741   NI        0.120374    0.474017    0.215125     0.004307
NI742   NI        0.155341    0.441121    0.219820     0.004307
AU743   AU        0.149178    0.473561    0.253166     0.007504
AU744   AU        0.186025    0.435478    0.250449     0.007504
AU745   AU        0.188607    0.472680    0.214617     0.007504
AU746   AU        0.223507    0.434796    0.213582     0.007504
AU747   AU        0.223312    0.470174    0.254969     0.007504
AU748   AU        0.261840    0.434005    0.251501     0.007504
AU749   AU        0.261522    0.469130    0.213557     0.007504
AU750   AU        0.298734    0.435490    0.214302     0.007504
AU751   AU        0.299742    0.470260    0.252017     0.007504
AU752   AU        0.341213    0.435262    0.252261     0.007504
AU753   AU        0.336881    0.473764    0.213214     0.007504
AU754   AU        0.376859    0.436183    0.213673     0.007504
AU755   AU        0.378341    0.472090    0.252310     0.007504
AU756   AU        0.418666    0.437162    0.253941     0.007504
AU757   AU        0.415038    0.471912    0.213811     0.007504
AU758   AU        0.456417    0.435163    0.215685     0.007504
AU759   AU        0.456286    0.468661    0.253868     0.007504
AU760   AU        0.495149    0.434628    0.254281     0.007504
AU761   AU        0.494910    0.471766    0.215114     0.007504
AU762   AU        0.532879    0.434401    0.218008     0.007504
AU763   AU        0.530669    0.470805    0.254313     0.007504
AU764   AU        0.573242    0.433321    0.254944     0.007504
AU765   AU        0.571584    0.470142    0.217405     0.007504
AU766   AU        0.611817    0.432789    0.213381     0.007504
AU767   AU        0.610441    0.470517    0.252988     0.007504
AU768   AU        0.652422    0.434327    0.254838     0.007504
AU769   AU        0.647317    0.471792    0.214825     0.007504
AU770   AU        0.686957    0.435826    0.215634     0.007504
AU771   AU        0.690007    0.470845    0.254500     0.007504
AU772   AU        0.725788    0.436023    0.251741     0.007504
AU773   AU        0.723953    0.471245    0.216416     0.007504
NI774   NI        0.753979    0.437856    0.215307     0.004307
AU775   AU        0.759883    0.473858    0.252710     0.007504
NI776   NI        0.790976    0.435525    0.244460     0.004307
NI777   NI        0.784074    0.472770    0.214485     0.004307
NI778   NI        0.835031    0.442249    0.205638     0.004307
NI779   NI        0.818621    0.475793    0.246135     0.004307
NI780   NI        0.851553    0.440266    0.248644     0.004307
NI781   NI        0.050586    0.507164    0.254627     0.004307
NI782   NI        0.085421    0.503735    0.215453     0.004307
NI783   NI        0.081763    0.538259    0.244360     0.004307
NI784   NI        0.122218    0.510805    0.248772     0.004307
NI785   NI        0.113163    0.539411    0.207304     0.004307
NI786   NI        0.155483    0.506604    0.214464     0.004307
AU787   AU        0.150444    0.546394    0.254484     0.007504
AU788   AU        0.182498    0.509634    0.251877     0.007504
AU789   AU        0.186993    0.543476    0.215858     0.007504
AU790   AU        0.225012    0.508048    0.217785     0.007504
AU791   AU        0.223397    0.544826    0.252642     0.007504
AU792   AU        0.263725    0.506609    0.253891     0.007504
AU793   AU        0.263075    0.542467    0.215563     0.007504
AU794   AU        0.301731    0.506705    0.213795     0.007504
AU795   AU        0.301536    0.542147    0.254141     0.007504
AU796   AU        0.339326    0.508465    0.253843     0.007504
AU797   AU        0.339934    0.542269    0.212795     0.007504
AU798   AU        0.377245    0.505108    0.213509     0.007504
AU799   AU        0.374397    0.545854    0.253630     0.007504
AU800   AU        0.415610    0.508232    0.254026     0.007504
AU801   AU        0.415538    0.543357    0.213421     0.007504
AU802   AU        0.454055    0.506943    0.215490     0.007504
AU803   AU        0.456196    0.545166    0.253475     0.007504
AU804   AU        0.494514    0.505940    0.255141     0.007504
AU805   AU        0.492019    0.543461    0.216043     0.007504
AU806   AU        0.535220    0.509411    0.210947     0.007504
AU807   AU        0.532075    0.546048    0.252463     0.007504
AU808   AU        0.570495    0.506656    0.252851     0.007504
AU809   AU        0.571174    0.544258    0.214251     0.007504
AU810   AU        0.608718    0.506465    0.215085     0.007504
AU811   AU        0.608174    0.543392    0.252280     0.007504
AU812   AU        0.650658    0.506134    0.254114     0.007504
AU813   AU        0.646158    0.542069    0.217156     0.007504
AU814   AU        0.684897    0.504825    0.218807     0.007504
AU815   AU        0.682282    0.542919    0.255554     0.007504
AU816   AU        0.724692    0.506775    0.254082     0.007504
AU817   AU        0.714714    0.540685    0.221494     0.007504
NI818   NI        0.752993    0.506410    0.215075     0.004307
NI819   NI        0.755758    0.540525    0.255215     0.004307
NI820   NI        0.787089    0.510095    0.246714     0.004307
NI821   NI        0.788274    0.540852    0.216980     0.004307
NI822   NI        0.835393    0.490672    0.207074     0.004307
NI823   NI        0.821091    0.550879    0.249880     0.004307
NI824   NI        0.853649    0.519874    0.250114     0.004307
NI825   NI        0.125701    0.624653    0.228755     0.004307
NI826   NI        0.110951    0.576714    0.249855     0.004307
NI827   NI        0.108182    0.586489    0.204879     0.004307
NI828   NI        0.151365    0.571801    0.216094     0.004307
NI829   NI        0.164588    0.614957    0.249772     0.004307
AU830   AU        0.187517    0.578028    0.251036     0.007504
NI831   NI        0.195008    0.611598    0.212548     0.004307
AU832   AU        0.226604    0.577728    0.214025     0.007504
AU833   AU        0.223101    0.613842    0.254019     0.007504
AU834   AU        0.263182    0.578187    0.253307     0.007504
AU835   AU        0.262357    0.613624    0.213112     0.007504
AU836   AU        0.299474    0.577192    0.214521     0.007504
AU837   AU        0.299742    0.614788    0.250955     0.007504
AU838   AU        0.337662    0.580824    0.253356     0.007504
AU839   AU        0.336598    0.614626    0.213174     0.007504
AU840   AU        0.376066    0.579252    0.212886     0.007504
AU841   AU        0.375203    0.617011    0.253245     0.007504
AU842   AU        0.416572    0.580895    0.252969     0.007504
AU843   AU        0.415396    0.616428    0.213489     0.007504
AU844   AU        0.453927    0.583183    0.215759     0.007504
AU845   AU        0.455792    0.617502    0.254467     0.007504
AU846   AU        0.493028    0.580484    0.252644     0.007504
AU847   AU        0.494049    0.617615    0.212422     0.007504
AU848   AU        0.532867    0.578742    0.213017     0.007504
AU849   AU        0.533379    0.617301    0.251858     0.007504
AU850   AU        0.570008    0.581218    0.252306     0.007504
AU851   AU        0.570682    0.617100    0.214292     0.007504
AU852   AU        0.608709    0.580054    0.215484     0.007504
AU853   AU        0.607763    0.617022    0.252673     0.007504
AU854   AU        0.646457    0.579816    0.254322     0.007504
AU855   AU        0.644980    0.613639    0.217393     0.007504
AU856   AU        0.679317    0.576334    0.220017     0.007504
AU857   AU        0.681664    0.613727    0.257307     0.007504
AU858   AU        0.718095    0.577173    0.257583     0.007504
NI859   NI        0.716977    0.608523    0.220188     0.004307
NI860   NI        0.752365    0.573172    0.224810     0.004307
NI861   NI        0.752625    0.612674    0.260814     0.004307
NI862   NI        0.789379    0.584136    0.251658     0.004307
NI863   NI        0.793792    0.606074    0.205498     0.004307
NI864   NI        0.818671    0.618591    0.247879     0.004307
NI865   NI        0.106494    0.658317    0.256561     0.004307
NI866   NI        0.157096    0.654863    0.222053     0.004307
NI867   NI        0.154836    0.682799    0.260938     0.004307
NI868   NI        0.195878    0.658790    0.253100     0.004307
NI869   NI        0.202452    0.688501    0.212330     0.004307
NI870   NI        0.226135    0.649301    0.220280     0.004307
NI871   NI        0.226823    0.689703    0.251516     0.004307
AU872   AU        0.260879    0.650704    0.254670     0.007504
NI873   NI        0.259906    0.683870    0.214639     0.004307
AU874   AU        0.297715    0.650904    0.213557     0.007504
AU875   AU        0.298329    0.686631    0.250984     0.007504
AU876   AU        0.336566    0.652892    0.251072     0.007504
AU877   AU        0.337833    0.685530    0.214203     0.007504
AU878   AU        0.374884    0.650144    0.215381     0.007504
AU879   AU        0.375593    0.686306    0.252142     0.007504
AU880   AU        0.416275    0.650609    0.251759     0.007504
AU881   AU        0.416037    0.687431    0.215080     0.007504
AU882   AU        0.452437    0.652004    0.213647     0.007504
AU883   AU        0.456674    0.686849    0.254486     0.007504
AU884   AU        0.493095    0.651499    0.252541     0.007504
AU885   AU        0.492538    0.687533    0.216163     0.007504
AU886   AU        0.530232    0.653160    0.213679     0.007504
AU887   AU        0.534168    0.690545    0.255188     0.007504
AU888   AU        0.568985    0.654248    0.253081     0.007504
AU889   AU        0.572106    0.687117    0.213445     0.007504
AU890   AU        0.608644    0.652229    0.213034     0.007504
AU891   AU        0.607898    0.684931    0.254300     0.007504
AU892   AU        0.646307    0.649314    0.254819     0.007504
NI893   NI        0.620272    0.701842    0.213379     0.004307
NI894   NI        0.683499    0.641512    0.221017     0.004307
NI895   NI        0.682006    0.675948    0.254735     0.004307
NI896   NI        0.720827    0.645975    0.257559     0.004307
NI897   NI        0.718419    0.673035    0.222547     0.004307
NI898   NI        0.752680    0.645513    0.224135     0.004307
NI899   NI        0.754732    0.681720    0.255361     0.004307
NI900   NI        0.788031    0.656274    0.262950     0.004307
NI901   NI        0.185749    0.718502    0.251249     0.004307
NI902   NI        0.234026    0.724083    0.218801     0.004307
NI903   NI        0.225996    0.746894    0.260754     0.004307
NI904   NI        0.264021    0.717687    0.257488     0.004307
NI905   NI        0.212754    0.794716    0.289503     0.004307
NI906   NI        0.299561    0.718820    0.210545     0.004307
NI907   NI        0.271394    0.748029    0.222924     0.004307
NI908   NI        0.334070    0.723767    0.251149     0.004307
NI909   NI        0.323802    0.752802    0.217852     0.004307
NI910   NI        0.377500    0.720011    0.213588     0.004307
NI911   NI        0.375007    0.746957    0.246175     0.004307
AU912   AU        0.415664    0.719447    0.251791     0.007504
NI913   NI        0.414745    0.759922    0.221618     0.004307
NI914   NI        0.453374    0.720699    0.214989     0.004307
NI915   NI        0.454331    0.753580    0.245565     0.004307
AU916   AU        0.495685    0.719407    0.251089     0.007504
NI917   NI        0.496238    0.759305    0.219700     0.004307
NI918   NI        0.529925    0.721344    0.213793     0.004307
NI919   NI        0.534370    0.755937    0.249889     0.004307
NI920   NI        0.571928    0.722377    0.254689     0.004307
NI921   NI        0.553726    0.765934    0.207221     0.004307
NI922   NI        0.586687    0.733413    0.213514     0.004307
NI923   NI        0.594837    0.762348    0.248164     0.004307
NI924   NI        0.649556    0.708970    0.249494     0.004307
NI925   NI        0.635801    0.748549    0.234839     0.004307
NI926   NI        0.655877    0.674343    0.217972     0.004307
NI927   NI        0.687119    0.744373    0.259041     0.004307
NI928   NI        0.724851    0.714013    0.264097     0.004307
NI929   NI        0.251999    0.788274    0.249697     0.004307
NI930   NI        0.335255    0.784427    0.261434     0.004307
NI931   NI        0.372208    0.762623    0.199494     0.004307
NI932   NI        0.377417    0.793434    0.236119     0.004307
NI933   NI        0.421435    0.791687    0.266088     0.004307
NI934   NI        0.455327    0.796474    0.210807     0.004307
NI935   NI        0.443293    0.816027    0.312009     0.004307
NI936   NI        0.505583    0.800185    0.243735     0.004307
NI937   NI        0.563352    0.793582    0.242546     0.004307
NI938   NI        0.436373    0.833287    0.258144     0.004307
NI939   NI        0.601280    0.803796    0.269045     0.004307
NI940   NI        0.651480    0.783280    0.262224     0.004307
NI941   NI        0.313709    0.063043    0.343099     0.004307
NI942   NI        0.372538    0.040480    0.282947     0.004307
NI943   NI        0.359849    0.069399    0.326415     0.004307
NI944   NI        0.418085    0.063712    0.281628     0.004307
NI945   NI        0.457964    0.060764    0.320936     0.004307
NI946   NI        0.498486    0.032147    0.326914     0.004307
NI947   NI        0.540830    0.066905    0.317777     0.004307
NI948   NI        0.585081    0.062124    0.303220     0.004307
NI949   NI        0.592618    0.029800    0.344169     0.004307
NI950   NI        0.225008    0.123761    0.258611     0.004307
NI951   NI        0.224425    0.138037    0.329979     0.004307
NI952   NI        0.259830    0.077947    0.338843     0.004307
NI953   NI        0.259061    0.138669    0.295350     0.004307
NI954   NI        0.288830    0.082335    0.304773     0.004307
NI955   NI        0.294084    0.132250    0.329465     0.004307
NI956   NI        0.328796    0.102549    0.322599     0.004307
NI957   NI        0.341293    0.120403    0.285197     0.004307
NI958   NI        0.379643    0.095394    0.288742     0.004307
AU959   AU        0.379212    0.114642    0.331887     0.007504
NI960   NI        0.413480    0.084258    0.329398     0.004307
NI961   NI        0.419990    0.119718    0.291713     0.004307
NI962   NI        0.496071    0.066558    0.287772     0.004307
AU963   AU        0.456201    0.112725    0.332117     0.007504
NI964   NI        0.493645    0.082152    0.334725     0.004307
NI965   NI        0.493010    0.115183    0.292777     0.004307
NI966   NI        0.539453    0.105576    0.281184     0.004307
AU967   AU        0.532362    0.112778    0.335077     0.007504
NI968   NI        0.580575    0.073740    0.353416     0.004307
NI969   NI        0.575571    0.100435    0.321035     0.004307
NI970   NI        0.609322    0.103398    0.287531     0.004307
NI971   NI        0.619039    0.123382    0.329941     0.004307
NI972   NI        0.626285    0.079814    0.325185     0.004307
NI973   NI        0.648893    0.136581    0.286931     0.004307
NI974   NI        0.673070    0.112953    0.321960     0.004307
NI975   NI        0.724586    0.113813    0.309100     0.004307
NI976   NI        0.154500    0.180403    0.282486     0.004307
NI977   NI        0.187409    0.127081    0.304291     0.004307
NI978   NI        0.142891    0.203065    0.328955     0.004307
NI979   NI        0.189869    0.137400    0.357316     0.004307
NI980   NI        0.178858    0.172563    0.329931     0.004307
NI981   NI        0.214723    0.170701    0.290620     0.004307
AU982   AU        0.223919    0.187994    0.330891     0.007504
NI983   NI        0.262227    0.160773    0.334762     0.004307
AU984   AU        0.262327    0.183000    0.291191     0.007504
NI985   NI        0.305402    0.155970    0.293760     0.004307
AU986   AU        0.302768    0.184761    0.331642     0.007504
AU987   AU        0.342103    0.149724    0.330221     0.007504
AU988   AU        0.341869    0.183057    0.290887     0.007504
AU989   AU        0.380871    0.149715    0.293757     0.007504
AU990   AU        0.379590    0.186570    0.331796     0.007504
AU991   AU        0.417229    0.148673    0.329795     0.007504
AU992   AU        0.416273    0.184975    0.292708     0.007504
AU993   AU        0.455858    0.148956    0.290842     0.007504
AU994   AU        0.458382    0.183567    0.330165     0.007504
AU995   AU        0.494292    0.144734    0.329934     0.007504
AU996   AU        0.495635    0.184437    0.292394     0.007504
AU997   AU        0.532064    0.150773    0.292996     0.007504
AU998   AU        0.533858    0.181684    0.331606     0.007504
AU999   AU        0.570699    0.146192    0.331568     0.007504
AU1000   AU        0.572431    0.183410    0.295328     0.007504
NI1001   NI        0.608207    0.157152    0.297763     0.004307
AU1002   AU        0.610146    0.182789    0.334749     0.007504
NI1003   NI        0.652551    0.153338    0.331509     0.004307
AU1004   AU        0.649289    0.184539    0.294775     0.007504
NI1005   NI        0.687807    0.153610    0.293323     0.004307
AU1006   AU        0.686296    0.186168    0.331978     0.007504
NI1007   NI        0.720577    0.147670    0.338150     0.004307
NI1008   NI        0.721622    0.184946    0.291292     0.004307
NI1009   NI        0.784643    0.145037    0.326664     0.004307
NI1010   NI        0.747530    0.179872    0.326056     0.004307
NI1011   NI        0.815417    0.247500    0.328406     0.004307
NI1012   NI        0.045607    0.293050    0.335527     0.004307
NI1013   NI        0.107434    0.227242    0.328019     0.004307
NI1014   NI        0.119958    0.253708    0.290732     0.004307
NI1015   NI        0.153206    0.225148    0.291270     0.004307
AU1016   AU        0.153651    0.252814    0.332268     0.007504
AU1017   AU        0.190156    0.220827    0.330742     0.007504
AU1018   AU        0.188391    0.254775    0.295417     0.007504
AU1019   AU        0.225923    0.220650    0.292105     0.007504
AU1020   AU        0.226433    0.257117    0.329641     0.007504
AU1021   AU        0.263474    0.220069    0.327619     0.007504
AU1022   AU        0.264918    0.257539    0.290348     0.007504
AU1023   AU        0.302283    0.216647    0.291293     0.007504
AU1024   AU        0.302810    0.254469    0.329286     0.007504
AU1025   AU        0.342190    0.220829    0.328676     0.007504
AU1026   AU        0.338766    0.253963    0.292017     0.007504
AU1027   AU        0.381335    0.220629    0.291163     0.007504
AU1028   AU        0.378575    0.256107    0.333137     0.007504
AU1029   AU        0.418237    0.220713    0.330574     0.007504
AU1030   AU        0.419745    0.255584    0.294284     0.007504
AU1031   AU        0.457168    0.218990    0.293877     0.007504
AU1032   AU        0.456018    0.254759    0.332034     0.007504
AU1033   AU        0.495796    0.218012    0.333236     0.007504
AU1034   AU        0.495148    0.255824    0.294265     0.007504
AU1035   AU        0.532557    0.219770    0.294880     0.007504
AU1036   AU        0.534861    0.255384    0.333114     0.007504
AU1037   AU        0.575934    0.218483    0.329787     0.007504
AU1038   AU        0.571804    0.254804    0.293032     0.007504
AU1039   AU        0.612022    0.218511    0.294979     0.007504
AU1040   AU        0.611835    0.255052    0.328994     0.007504
AU1041   AU        0.647851    0.219603    0.332101     0.007504
AU1042   AU        0.650470    0.257705    0.292170     0.007504
AU1043   AU        0.687140    0.223044    0.293121     0.007504
AU1044   AU        0.689893    0.256327    0.331067     0.007504
AU1045   AU        0.724874    0.218396    0.330967     0.007504
AU1046   AU        0.725550    0.257050    0.290981     0.007504
NI1047   NI        0.755837    0.215268    0.286343     0.004307
NI1048   NI        0.760275    0.252275    0.323402     0.004307
NI1049   NI        0.776446    0.212841    0.329812     0.004307
NI1050   NI        0.797820    0.256170    0.283568     0.004307
NI1051   NI        0.860137    0.274156    0.321031     0.004307
NI1052   NI        0.062418    0.323777    0.279251     0.004307
NI1053   NI        0.062605    0.361939    0.309245     0.004307
NI1054   NI        0.092922    0.292960    0.281098     0.004307
NI1055   NI        0.081259    0.322749    0.328815     0.004307
NI1056   NI        0.121274    0.286666    0.329156     0.004307
NI1057   NI        0.117647    0.326496    0.293324     0.004307
AU1058   AU        0.149952    0.290116    0.291602     0.007504
AU1059   AU        0.148326    0.326062    0.330977     0.007504
AU1060   AU        0.185477    0.291369    0.329746     0.007504
AU1061   AU        0.185777    0.327150    0.292590     0.007504
AU1062   AU        0.222756    0.292425    0.291276     0.007504
AU1063   AU        0.224425    0.328086    0.330002     0.007504
AU1064   AU        0.262788    0.293529    0.328618     0.007504
AU1065   AU        0.260665    0.329323    0.291761     0.007504
AU1066   AU        0.300981    0.292692    0.293115     0.007504
AU1067   AU        0.300563    0.329138    0.330939     0.007504
AU1068   AU        0.339045    0.295108    0.327582     0.007504
AU1069   AU        0.340962    0.329010    0.291802     0.007504
AU1070   AU        0.380114    0.292479    0.292418     0.007504
AU1071   AU        0.378863    0.329926    0.329866     0.007504
AU1072   AU        0.417101    0.293281    0.328893     0.007504
AU1073   AU        0.418111    0.327992    0.290810     0.007504
AU1074   AU        0.457492    0.289837    0.293105     0.007504
AU1075   AU        0.455193    0.329257    0.331624     0.007504
AU1076   AU        0.493661    0.293635    0.331948     0.007504
AU1077   AU        0.493443    0.327581    0.292021     0.007504
AU1078   AU        0.531317    0.290855    0.293791     0.007504
AU1079   AU        0.531887    0.328703    0.331501     0.007504
AU1080   AU        0.575519    0.291100    0.331118     0.007504
AU1081   AU        0.570692    0.326990    0.292358     0.007504
AU1082   AU        0.610187    0.292018    0.292870     0.007504
AU1083   AU        0.611493    0.327056    0.331664     0.007504
AU1084   AU        0.647306    0.293582    0.331124     0.007504
AU1085   AU        0.650170    0.326412    0.294203     0.007504
AU1086   AU        0.689749    0.292211    0.291437     0.007504
AU1087   AU        0.691906    0.329394    0.330907     0.007504
AU1088   AU        0.728164    0.292353    0.328853     0.007504
AU1089   AU        0.726684    0.329290    0.290682     0.007504
NI1090   NI        0.757603    0.289136    0.288341     0.004307
AU1091   AU        0.762789    0.327135    0.329099     0.007504
NI1092   NI        0.783310    0.286449    0.327753     0.004307
NI1093   NI        0.781058    0.323107    0.286416     0.004307
NI1094   NI        0.825477    0.296285    0.289717     0.004307
NI1095   NI        0.811967    0.322858    0.326590     0.004307
NI1096   NI        0.845671    0.220728    0.294664     0.004307
NI1097   NI        0.854359    0.319914    0.312747     0.004307
NI1098   NI        0.035396    0.354886    0.358018     0.004307
NI1099   NI        0.025963    0.395418    0.304467     0.004307
NI1100   NI        0.097252    0.362845    0.277394     0.004307
NI1101   NI        0.088226    0.397654    0.323990     0.004307
AU1102   AU        0.114937    0.362206    0.328801     0.007504
NI1103   NI        0.114173    0.402982    0.289549     0.004307
AU1104   AU        0.148345    0.365005    0.293582     0.007504
AU1105   AU        0.146875    0.402238    0.328986     0.007504
AU1106   AU        0.184276    0.364692    0.329951     0.007504
AU1107   AU        0.186448    0.401676    0.291440     0.007504
AU1108   AU        0.223965    0.365439    0.293059     0.007504
AU1109   AU        0.225210    0.400156    0.332097     0.007504
AU1110   AU        0.261335    0.364584    0.330823     0.007504
AU1111   AU        0.262000    0.399113    0.292523     0.007504
AU1112   AU        0.301279    0.365231    0.292743     0.007504
AU1113   AU        0.302663    0.400025    0.329062     0.007504
AU1114   AU        0.339571    0.364822    0.330608     0.007504
AU1115   AU        0.341004    0.398915    0.291489     0.007504
AU1116   AU        0.380312    0.363869    0.291661     0.007504
AU1117   AU        0.377537    0.400062    0.328974     0.007504
AU1118   AU        0.416845    0.363240    0.329893     0.007504
AU1119   AU        0.417118    0.400339    0.292381     0.007504
AU1120   AU        0.456393    0.363646    0.291689     0.007504
AU1121   AU        0.455197    0.399634    0.329506     0.007504
AU1122   AU        0.494817    0.365055    0.331079     0.007504
AU1123   AU        0.494028    0.399227    0.291376     0.007504
AU1124   AU        0.533483    0.362736    0.291627     0.007504
AU1125   AU        0.533547    0.401547    0.329695     0.007504
AU1126   AU        0.571248    0.364303    0.330434     0.007504
AU1127   AU        0.573004    0.397592    0.290341     0.007504
AU1128   AU        0.612248    0.362953    0.293541     0.007504
AU1129   AU        0.610618    0.397949    0.328549     0.007504
AU1130   AU        0.650417    0.361810    0.330539     0.007504
AU1131   AU        0.649903    0.398356    0.292092     0.007504
AU1132   AU        0.691804    0.365013    0.292469     0.007504
AU1133   AU        0.691103    0.398382    0.327644     0.007504
AU1134   AU        0.730010    0.365063    0.330549     0.007504
AU1135   AU        0.728990    0.401501    0.293407     0.007504
AU1136   AU        0.765258    0.366907    0.292091     0.007504
AU1137   AU        0.766684    0.401054    0.331201     0.007504
NI1138   NI        0.791404    0.361532    0.334087     0.004307
NI1139   NI        0.798763    0.404004    0.292663     0.004307
NI1140   NI        0.815423    0.358094    0.292319     0.004307
NI1141   NI        0.823329    0.395481    0.327373     0.004307
NI1142   NI        0.855509    0.363931    0.308886     0.004307
NI1143   NI        0.851020    0.408864    0.288900     0.004307
NI1144   NI        0.054846    0.434385    0.322995     0.004307
NI1145   NI        0.058176    0.471997    0.288225     0.004307
NI1146   NI        0.086646    0.438417    0.286442     0.004307
NI1147   NI        0.080867    0.470956    0.330739     0.004307
AU1148   AU        0.109598    0.438524    0.330914     0.007504
NI1149   NI        0.118697    0.466484    0.294913     0.004307
AU1150   AU        0.148879    0.436572    0.291704     0.007504
AU1151   AU        0.145439    0.471865    0.331941     0.007504
AU1152   AU        0.187244    0.433497    0.330316     0.007504
AU1153   AU        0.185034    0.472441    0.293400     0.007504
AU1154   AU        0.226377    0.436055    0.291619     0.007504
AU1155   AU        0.225579    0.471189    0.329187     0.007504
AU1156   AU        0.264193    0.437048    0.332417     0.007504
AU1157   AU        0.263918    0.471612    0.292265     0.007504
AU1158   AU        0.300368    0.435723    0.293005     0.007504
AU1159   AU        0.301914    0.471097    0.330397     0.007504
AU1160   AU        0.339927    0.436498    0.332374     0.007504
AU1161   AU        0.340093    0.469309    0.292112     0.007504
AU1162   AU        0.380025    0.437168    0.290796     0.007504
AU1163   AU        0.379335    0.472252    0.330731     0.007504
AU1164   AU        0.418290    0.434956    0.331431     0.007504
AU1165   AU        0.416641    0.472291    0.293923     0.007504
AU1166   AU        0.456093    0.433552    0.293434     0.007504
AU1167   AU        0.455356    0.470529    0.332785     0.007504
AU1168   AU        0.493941    0.436169    0.330723     0.007504
AU1169   AU        0.494527    0.472503    0.294340     0.007504
AU1170   AU        0.532330    0.434464    0.291820     0.007504
AU1171   AU        0.532525    0.472214    0.327438     0.007504
AU1172   AU        0.571769    0.436139    0.329070     0.007504
AU1173   AU        0.570826    0.470635    0.289858     0.007504
AU1174   AU        0.610243    0.435565    0.293430     0.007504
AU1175   AU        0.610890    0.470897    0.330282     0.007504
AU1176   AU        0.648461    0.435631    0.329924     0.007504
AU1177   AU        0.648297    0.470722    0.291970     0.007504
AU1178   AU        0.690265    0.435457    0.293161     0.007504
AU1179   AU        0.690098    0.471455    0.330804     0.007504
AU1180   AU        0.728538    0.434476    0.328206     0.007504
AU1181   AU        0.730005    0.471930    0.290541     0.007504
AU1182   AU        0.765211    0.438869    0.291346     0.007504
AU1183   AU        0.769123    0.472249    0.329479     0.007504
AU1184   AU        0.802191    0.434723    0.330223     0.007504
NI1185   NI        0.793432    0.476356    0.285004     0.004307
NI1186   NI        0.820037    0.441282    0.283728     0.004307
NI1187   NI        0.821311    0.472827    0.321437     0.004307
NI1188   NI        0.855129    0.442724    0.318648     0.004307
NI1189   NI        0.847355    0.475952    0.282128     0.004307
NI1190   NI        0.059452    0.507316    0.318600     0.004307
NI1191   NI        0.055933    0.544769    0.284266     0.004307
NI1192   NI        0.094037    0.510260    0.285498     0.004307
NI1193   NI        0.081509    0.543744    0.324459     0.004307
AU1194   AU        0.111912    0.508327    0.330530     0.007504
NI1195   NI        0.115708    0.546565    0.290791     0.004307
AU1196   AU        0.147954    0.508189    0.289990     0.007504
AU1197   AU        0.149100    0.544881    0.328251     0.007504
AU1198   AU        0.185903    0.506198    0.328462     0.007504
AU1199   AU        0.186302    0.543539    0.292443     0.007504
AU1200   AU        0.224318    0.508353    0.289196     0.007504
AU1201   AU        0.224947    0.541871    0.330381     0.007504
AU1202   AU        0.263253    0.509469    0.329196     0.007504
AU1203   AU        0.262735    0.545618    0.293027     0.007504
AU1204   AU        0.300895    0.506299    0.292759     0.007504
AU1205   AU        0.302726    0.544035    0.331129     0.007504
AU1206   AU        0.338770    0.507741    0.327018     0.007504
AU1207   AU        0.337998    0.545026    0.292353     0.007504
AU1208   AU        0.376778    0.506654    0.293475     0.007504
AU1209   AU        0.378028    0.544048    0.329244     0.007504
AU1210   AU        0.417413    0.508416    0.329944     0.007504
AU1211   AU        0.416226    0.543495    0.292548     0.007504
AU1212   AU        0.454873    0.507819    0.291836     0.007504
AU1213   AU        0.453045    0.544929    0.330448     0.007504
AU1214   AU        0.492855    0.507049    0.329962     0.007504
AU1215   AU        0.493269    0.544855    0.291833     0.007504
AU1216   AU        0.531485    0.508627    0.293240     0.007504
AU1217   AU        0.532018    0.543573    0.332559     0.007504
AU1218   AU        0.571150    0.509007    0.327488     0.007504
AU1219   AU        0.571517    0.544865    0.289458     0.007504
AU1220   AU        0.610124    0.506436    0.289875     0.007504
AU1221   AU        0.611118    0.545214    0.327121     0.007504
AU1222   AU        0.649003    0.506247    0.328739     0.007504
AU1223   AU        0.650509    0.544176    0.293986     0.007504
AU1224   AU        0.688854    0.507187    0.291445     0.007504
AU1225   AU        0.689838    0.543194    0.331002     0.007504
AU1226   AU        0.729097    0.507629    0.332305     0.007504
AU1227   AU        0.724571    0.544592    0.290695     0.007504
AU1228   AU        0.762457    0.509845    0.290987     0.007504
AU1229   AU        0.762540    0.545238    0.329902     0.007504
AU1230   AU        0.800569    0.511490    0.328544     0.007504
NI1231   NI        0.789308    0.553297    0.292329     0.004307
NI1232   NI        0.814769    0.511776    0.284197     0.004307
NI1233   NI        0.824077    0.549423    0.321251     0.004307
NI1234   NI        0.852540    0.514271    0.324891     0.004307
NI1235   NI        0.852918    0.545011    0.287850     0.004307
NI1236   NI        0.049935    0.574034    0.321213     0.004307
NI1237   NI        0.089875    0.580061    0.296151     0.004307
NI1238   NI        0.077159    0.573930    0.378696     0.004307
NI1239   NI        0.115586    0.578011    0.335252     0.004307
NI1240   NI        0.120445    0.613417    0.276407     0.004307
AU1241   AU        0.149890    0.581068    0.288695     0.007504
NI1242   NI        0.147257    0.611997    0.327062     0.004307
AU1243   AU        0.185237    0.579434    0.331851     0.007504
AU1244   AU        0.185972    0.615539    0.291511     0.007504
AU1245   AU        0.223210    0.579111    0.289754     0.007504
AU1246   AU        0.221750    0.618363    0.330240     0.007504
AU1247   AU        0.263460    0.579671    0.330117     0.007504
AU1248   AU        0.261885    0.617574    0.292015     0.007504
AU1249   AU        0.299330    0.581121    0.291550     0.007504
AU1250   AU        0.300457    0.617206    0.329713     0.007504
AU1251   AU        0.338458    0.580731    0.326892     0.007504
AU1252   AU        0.338256    0.615757    0.290128     0.007504
AU1253   AU        0.376688    0.582252    0.288246     0.007504
AU1254   AU        0.376831    0.617615    0.328908     0.007504
AU1255   AU        0.417143    0.582365    0.332205     0.007504
AU1256   AU        0.415253    0.615858    0.291479     0.007504
AU1257   AU        0.454280    0.581879    0.292974     0.007504
AU1258   AU        0.456963    0.616094    0.329203     0.007504
AU1259   AU        0.494328    0.582208    0.330906     0.007504
AU1260   AU        0.494317    0.616793    0.292032     0.007504
AU1261   AU        0.530693    0.582021    0.289322     0.007504
AU1262   AU        0.532138    0.616260    0.330903     0.007504
AU1263   AU        0.570071    0.582783    0.330782     0.007504
AU1264   AU        0.572157    0.616885    0.289249     0.007504
AU1265   AU        0.607525    0.579569    0.290801     0.007504
AU1266   AU        0.608829    0.617159    0.328852     0.007504
AU1267   AU        0.649434    0.580242    0.331333     0.007504
AU1268   AU        0.647622    0.616260    0.293901     0.007504
AU1269   AU        0.684633    0.578289    0.292914     0.007504
AU1270   AU        0.685149    0.616141    0.331897     0.007504
AU1271   AU        0.722164    0.580943    0.331338     0.007504
AU1272   AU        0.717584    0.616053    0.295337     0.007504
NI1273   NI        0.754167    0.581552    0.294015     0.004307
NI1274   NI        0.752183    0.615471    0.335378     0.004307
NI1275   NI        0.792913    0.583389    0.327395     0.004307
NI1276   NI        0.791712    0.617500    0.296904     0.004307
NI1277   NI        0.818728    0.582296    0.285014     0.004307
NI1278   NI        0.822554    0.622834    0.333792     0.004307
NI1279   NI        0.847634    0.585587    0.322060     0.004307
NI1280   NI        0.095392    0.618597    0.330321     0.004307
NI1281   NI        0.115288    0.682449    0.294314     0.004307
NI1282   NI        0.149119    0.646962    0.287467     0.004307
NI1283   NI        0.152451    0.686700    0.329339     0.004307
AU1284   AU        0.185942    0.649750    0.328837     0.007504
NI1285   NI        0.187620    0.682007    0.298432     0.004307
AU1286   AU        0.225238    0.652147    0.290831     0.007504
AU1287   AU        0.224635    0.687379    0.329068     0.007504
AU1288   AU        0.261260    0.652509    0.330924     0.007504
AU1289   AU        0.262345    0.686485    0.291748     0.007504
AU1290   AU        0.299333    0.654217    0.289173     0.007504
AU1291   AU        0.299490    0.689229    0.327198     0.007504
AU1292   AU        0.337532    0.653302    0.327017     0.007504
AU1293   AU        0.338608    0.688076    0.290572     0.007504
AU1294   AU        0.378323    0.651499    0.291321     0.007504
AU1295   AU        0.379599    0.687472    0.329448     0.007504
AU1296   AU        0.417934    0.653937    0.329731     0.007504
AU1297   AU        0.416800    0.690059    0.290614     0.007504
AU1298   AU        0.455434    0.653939    0.292401     0.007504
AU1299   AU        0.453432    0.689811    0.328832     0.007504
AU1300   AU        0.496260    0.654193    0.329589     0.007504
AU1301   AU        0.493449    0.689675    0.291524     0.007504
AU1302   AU        0.533068    0.653642    0.292141     0.007504
AU1303   AU        0.534206    0.690037    0.330806     0.007504
AU1304   AU        0.570628    0.652518    0.333477     0.007504
AU1305   AU        0.570362    0.688621    0.291840     0.007504
AU1306   AU        0.610527    0.653167    0.291321     0.007504
AU1307   AU        0.608493    0.687114    0.330787     0.007504
AU1308   AU        0.649522    0.653279    0.332070     0.007504
AU1309   AU        0.646655    0.686972    0.293834     0.007504
AU1310   AU        0.684755    0.650762    0.293573     0.007504
AU1311   AU        0.685709    0.686673    0.332971     0.007504
AU1312   AU        0.721013    0.652085    0.331525     0.007504
NI1313   NI        0.722910    0.687547    0.301266     0.004307
NI1314   NI        0.750581    0.653552    0.294812     0.004307
NI1315   NI        0.752442    0.688403    0.341459     0.004307
NI1316   NI        0.788922    0.657665    0.334983     0.004307
NI1317   NI        0.773938    0.693074    0.299937     0.004307
NI1318   NI        0.155464    0.715291    0.293178     0.004307
NI1319   NI        0.187784    0.719748    0.333450     0.004307
NI1320   NI        0.187893    0.749093    0.292465     0.004307
NI1321   NI        0.220919    0.718556    0.298256     0.004307
NI1322   NI        0.216318    0.757020    0.328980     0.004307
AU1323   AU        0.259755    0.725023    0.328635     0.007504
NI1324   NI        0.262823    0.758289    0.293680     0.004307
AU1325   AU        0.299245    0.721827    0.291759     0.007504
NI1326   NI        0.299393    0.756119    0.323618     0.004307
AU1327   AU        0.340464    0.722121    0.329249     0.007504
NI1328   NI        0.339653    0.753141    0.292612     0.004307
AU1329   AU        0.378581    0.723069    0.289868     0.007504
AU1330   AU        0.377537    0.758284    0.330327     0.007504
AU1331   AU        0.415144    0.724005    0.329529     0.007504
NI1332   NI        0.417414    0.753013    0.287306     0.004307
AU1333   AU        0.456831    0.724570    0.289775     0.007504
AU1334   AU        0.457117    0.751759    0.335769     0.007504
AU1335   AU        0.495234    0.721680    0.330685     0.007504
NI1336   NI        0.495661    0.756282    0.287218     0.004307
AU1337   AU        0.530340    0.722879    0.290886     0.007504
NI1338   NI        0.533092    0.760483    0.329305     0.004307
AU1339   AU        0.569881    0.723166    0.329526     0.007504
NI1340   NI        0.569078    0.758038    0.292238     0.004307
NI1341   NI        0.605724    0.724670    0.296393     0.004307
NI1342   NI        0.598356    0.757773    0.332022     0.004307
NI1343   NI        0.649257    0.720163    0.330707     0.004307
NI1344   NI        0.649215    0.739823    0.285031     0.004307
NI1345   NI        0.690942    0.714824    0.298417     0.004307
NI1346   NI        0.690395    0.751269    0.335762     0.004307
NI1347   NI        0.719840    0.718455    0.339892     0.004307
NI1348   NI        0.686253    0.770757    0.295165     0.004307
NI1349   NI        0.742324    0.762296    0.323431     0.004307
NI1350   NI        0.251815    0.788228    0.323223     0.004307
NI1351   NI        0.296293    0.757166    0.261797     0.004307
NI1352   NI        0.293089    0.791224    0.287053     0.004307
NI1353   NI        0.341312    0.793310    0.333013     0.004307
NI1354   NI        0.382021    0.834821    0.339242     0.004307
NI1355   NI        0.379199    0.772184    0.285623     0.004307
NI1356   NI        0.392106    0.807033    0.305490     0.004307
NI1357   NI        0.421265    0.776018    0.325186     0.004307
NI1358   NI        0.418493    0.858446    0.329229     0.004307
NI1359   NI        0.454520    0.778727    0.292703     0.004307
NI1360   NI        0.446469    0.833665    0.354699     0.004307
NI1361   NI        0.485236    0.785946    0.325180     0.004307
NI1362   NI        0.477301    0.814224    0.277452     0.004307
NI1363   NI        0.532691    0.793651    0.283225     0.004307
NI1364   NI        0.529356    0.828977    0.332564     0.004307
NI1365   NI        0.569528    0.793717    0.330398     0.004307
NI1366   NI        0.563534    0.826211    0.296241     0.004307
NI1367   NI        0.619363    0.770395    0.293436     0.004307
NI1368   NI        0.613980    0.807590    0.320036     0.004307
NI1369   NI        0.650092    0.776822    0.332056     0.004307
NI1370   NI        0.241176    0.068049    0.383468     0.004307
NI1371   NI        0.336659    0.037098    0.421873     0.004307
NI1372   NI        0.346809    0.047546    0.380024     0.004307
NI1373   NI        0.384724    0.046533    0.408646     0.004307
NI1374   NI        0.423795    0.024374    0.414558     0.004307
NI1375   NI        0.403115    0.042519    0.318159     0.004307
NI1376   NI        0.427554    0.041937    0.366853     0.004307
NI1377   NI        0.460406    0.049535    0.415379     0.004307
NI1378   NI        0.496538    0.000714    0.410873     0.004307
NI1379   NI        0.499355    0.034513    0.375621     0.004307
NI1380   NI        0.528380    0.053954    0.407363     0.004307
NI1381   NI        0.538965    0.033973    0.344263     0.004307
NI1382   NI        0.572091    0.045915    0.384368     0.004307
NI1383   NI        0.675290    0.050612    0.422518     0.004307
NI1384   NI        0.149852    0.124531    0.421530     0.004307
NI1385   NI        0.206984    0.064545    0.336626     0.004307
NI1386   NI        0.176774    0.105248    0.389122     0.004307
NI1387   NI        0.217129    0.102163    0.366710     0.004307
NI1388   NI        0.217162    0.129185    0.409991     0.004307
NI1389   NI        0.290438    0.067275    0.413370     0.004307
NI1390   NI        0.258415    0.123413    0.362636     0.004307
NI1391   NI        0.295180    0.098008    0.369008     0.004307
NI1392   NI        0.303871    0.116283    0.406774     0.004307
NI1393   NI        0.344449    0.080182    0.412169     0.004307
AU1394   AU        0.342295    0.116592    0.369746     0.007504
NI1395   NI        0.379691    0.080962    0.368885     0.004307
AU1396   AU        0.380335    0.111941    0.408629     0.007504
NI1397   NI        0.423867    0.079592    0.404815     0.004307
AU1398   AU        0.417288    0.113785    0.368033     0.007504
NI1399   NI        0.455025    0.080283    0.366089     0.004307
AU1400   AU        0.457434    0.113307    0.406120     0.007504
NI1401   NI        0.493087    0.080734    0.403079     0.004307
AU1402   AU        0.493777    0.111809    0.369894     0.007504
NI1403   NI        0.531622    0.076834    0.366233     0.004307
AU1404   AU        0.531933    0.114821    0.408998     0.007504
NI1405   NI        0.576164    0.079347    0.411489     0.004307
AU1406   AU        0.571013    0.113347    0.372498     0.007504
NI1407   NI        0.619279    0.097229    0.367150     0.004307
NI1408   NI        0.610966    0.118139    0.407600     0.004307
NI1409   NI        0.634978    0.080582    0.420969     0.004307
NI1410   NI        0.659078    0.124935    0.366413     0.004307
NI1411   NI        0.669925    0.083845    0.385705     0.004307
NI1412   NI        0.683692    0.122856    0.404537     0.004307
NI1413   NI        0.681317    0.089301    0.442482     0.004307
NI1414   NI        0.706704    0.111156    0.359203     0.004307
NI1415   NI        0.716619    0.076800    0.412280     0.004307
NI1416   NI        0.101044    0.174164    0.417374     0.004307
NI1417   NI        0.150005    0.150231    0.382114     0.004307
NI1418   NI        0.115878    0.189121    0.367252     0.004307
NI1419   NI        0.137663    0.156468    0.339107     0.004307
NI1420   NI        0.147846    0.185444    0.412971     0.004307
NI1421   NI        0.185428    0.158329    0.411654     0.004307
NI1422   NI        0.185992    0.184032    0.371888     0.004307
NI1423   NI        0.229377    0.158976    0.373336     0.004307
AU1424   AU        0.226844    0.186715    0.409708     0.007504
AU1425   AU        0.265650    0.152149    0.411149     0.007504
AU1426   AU        0.265850    0.187428    0.372082     0.007504
AU1427   AU        0.305078    0.150723    0.370738     0.007504
AU1428   AU        0.303532    0.185125    0.409332     0.007504
AU1429   AU        0.341768    0.148084    0.406977     0.007504
AU1430   AU        0.341433    0.184526    0.368661     0.007504
AU1431   AU        0.380490    0.149181    0.369932     0.007504
AU1432   AU        0.379322    0.183304    0.407438     0.007504
AU1433   AU        0.419889    0.146764    0.408795     0.007504
AU1434   AU        0.417614    0.185010    0.371423     0.007504
AU1435   AU        0.459978    0.148103    0.369445     0.007504
AU1436   AU        0.455208    0.186245    0.409767     0.007504
AU1437   AU        0.495094    0.149916    0.407318     0.007504
AU1438   AU        0.497731    0.183220    0.369652     0.007504
AU1439   AU        0.531026    0.146523    0.368322     0.007504
AU1440   AU        0.535750    0.182257    0.408718     0.007504
AU1441   AU        0.570621    0.149248    0.409280     0.007504
AU1442   AU        0.572631    0.180511    0.369457     0.007504
AU1443   AU        0.611691    0.147741    0.372334     0.007504
AU1444   AU        0.611740    0.183966    0.406450     0.007504
AU1445   AU        0.650196    0.152553    0.408230     0.007504
AU1446   AU        0.650101    0.186542    0.370651     0.007504
NI1447   NI        0.690759    0.155019    0.372405     0.004307
AU1448   AU        0.688048    0.185276    0.409222     0.007504
NI1449   NI        0.722224    0.150517    0.411246     0.004307
NI1450   NI        0.723362    0.188277    0.368589     0.004307
NI1451   NI        0.759638    0.143137    0.369354     0.004307
NI1452   NI        0.754312    0.179242    0.409317     0.004307
NI1453   NI        0.822194    0.182628    0.401868     0.004307
NI1454   NI        0.800055    0.175377    0.364631     0.004307
NI1455   NI        0.824744    0.194147    0.325448     0.004307
NI1456   NI        0.058722    0.321620    0.373970     0.004307
NI1457   NI        0.075314    0.246549    0.359749     0.004307
NI1458   NI        0.094856    0.250406    0.409873     0.004307
NI1459   NI        0.122327    0.218092    0.403506     0.004307
NI1460   NI        0.124511    0.252935    0.370397     0.004307
NI1461   NI        0.154507    0.218943    0.372429     0.004307
AU1462   AU        0.152457    0.252933    0.408836     0.007504
AU1463   AU        0.187545    0.219554    0.409812     0.007504
AU1464   AU        0.188226    0.255122    0.367698     0.007504
AU1465   AU        0.226374    0.220060    0.369643     0.007504
AU1466   AU        0.225433    0.254584    0.409338     0.007504
AU1467   AU        0.262523    0.218865    0.409478     0.007504
AU1468   AU        0.263467    0.256094    0.366572     0.007504
AU1469   AU        0.302119    0.220946    0.370709     0.007504
AU1470   AU        0.301097    0.256167    0.407730     0.007504
AU1471   AU        0.337757    0.220937    0.411929     0.007504
AU1472   AU        0.339025    0.255962    0.370486     0.007504
AU1473   AU        0.380454    0.221736    0.369359     0.007504
AU1474   AU        0.377632    0.256245    0.406007     0.007504
AU1475   AU        0.417193    0.221401    0.408492     0.007504
AU1476   AU        0.416180    0.259769    0.369598     0.007504
AU1477   AU        0.458974    0.220211    0.370122     0.007504
AU1478   AU        0.454620    0.257359    0.404869     0.007504
AU1479   AU        0.493993    0.219785    0.409204     0.007504
AU1480   AU        0.497468    0.256548    0.370405     0.007504
AU1481   AU        0.532686    0.219213    0.369855     0.007504
AU1482   AU        0.535217    0.255510    0.407153     0.007504
AU1483   AU        0.572866    0.219441    0.405698     0.007504
AU1484   AU        0.571928    0.257102    0.369378     0.007504
AU1485   AU        0.609316    0.220068    0.369092     0.007504
AU1486   AU        0.610069    0.256497    0.407166     0.007504
AU1487   AU        0.649965    0.220921    0.408983     0.007504
AU1488   AU        0.650564    0.256940    0.369203     0.007504
AU1489   AU        0.689630    0.220604    0.369091     0.007504
AU1490   AU        0.689263    0.255603    0.408079     0.007504
AU1491   AU        0.725379    0.219132    0.408102     0.007504
AU1492   AU        0.726066    0.255483    0.370309     0.007504
NI1493   NI        0.753722    0.219953    0.371474     0.004307
AU1494   AU        0.761310    0.253193    0.408377     0.007504
NI1495   NI        0.787630    0.215287    0.405869     0.004307
NI1496   NI        0.783458    0.250860    0.364483     0.004307
NI1497   NI        0.822736    0.219313    0.363507     0.004307
NI1498   NI        0.846826    0.282928    0.404076     0.004307
NI1499   NI        0.850598    0.255740    0.367197     0.004307
NI1500   NI        0.063180    0.284239    0.411370     0.004307
NI1501   NI        0.035631    0.285116    0.453035     0.004307
NI1502   NI        0.092417    0.286967    0.370573     0.004307
NI1503   NI        0.087735    0.323387    0.410189     0.004307
AU1504   AU        0.125404    0.292105    0.409864     0.007504
AU1505   AU        0.112402    0.326904    0.370258     0.007504
AU1506   AU        0.149086    0.291274    0.367817     0.007504
AU1507   AU        0.147879    0.331189    0.407091     0.007504
AU1508   AU        0.184072    0.291932    0.407354     0.007504
AU1509   AU        0.185904    0.328788    0.370657     0.007504
AU1510   AU        0.224627    0.292146    0.369937     0.007504
AU1511   AU        0.225380    0.328230    0.407267     0.007504
AU1512   AU        0.265178    0.290579    0.409207     0.007504
AU1513   AU        0.264710    0.326199    0.371815     0.007504
AU1514   AU        0.302570    0.289261    0.368661     0.007504
AU1515   AU        0.303459    0.326272    0.408956     0.007504
AU1516   AU        0.342026    0.292359    0.408338     0.007504
AU1517   AU        0.341952    0.328993    0.367695     0.007504
AU1518   AU        0.378173    0.292826    0.369944     0.007504
AU1519   AU        0.380318    0.327587    0.406984     0.007504
AU1520   AU        0.418394    0.291872    0.408191     0.007504
AU1521   AU        0.415949    0.327036    0.367844     0.007504
AU1522   AU        0.455849    0.292509    0.367079     0.007504
AU1523   AU        0.457320    0.327047    0.405727     0.007504
AU1524   AU        0.497108    0.293213    0.405676     0.007504
AU1525   AU        0.493040    0.329224    0.369519     0.007504
AU1526   AU        0.532382    0.291778    0.370613     0.007504
AU1527   AU        0.534732    0.327932    0.408588     0.007504
AU1528   AU        0.572998    0.292768    0.409461     0.007504
AU1529   AU        0.572187    0.326938    0.370140     0.007504
AU1530   AU        0.612541    0.290612    0.369321     0.007504
AU1531   AU        0.611300    0.328514    0.408705     0.007504
AU1532   AU        0.648941    0.290745    0.407346     0.007504
AU1533   AU        0.647978    0.328754    0.370989     0.007504
AU1534   AU        0.690327    0.292945    0.368730     0.007504
AU1535   AU        0.688004    0.328610    0.407903     0.007504
AU1536   AU        0.727660    0.292109    0.408084     0.007504
AU1537   AU        0.728472    0.326595    0.367373     0.007504
AU1538   AU        0.764682    0.290779    0.371898     0.007504
AU1539   AU        0.763678    0.329910    0.408491     0.007504
NI1540   NI        0.791330    0.288295    0.409981     0.004307
NI1541   NI        0.796886    0.328577    0.368410     0.004307
NI1542   NI        0.817369    0.285560    0.363537     0.004307
NI1543   NI        0.824768    0.322080    0.407747     0.004307
NI1544   NI        0.848243    0.314600    0.368470     0.004307
NI1545   NI        0.883903    0.337012    0.352414     0.004307
NI1546   NI        0.017184    0.390096    0.384677     0.004307
NI1547   NI        0.057569    0.358225    0.406676     0.004307
NI1548   NI        0.054855    0.395517    0.357035     0.004307
NI1549   NI        0.082866    0.360091    0.363307     0.004307
NI1550   NI        0.076695    0.401322    0.404445     0.004307
AU1551   AU        0.110008    0.362730    0.406147     0.007504
AU1552   AU        0.108868    0.398051    0.369444     0.007504
AU1553   AU        0.146304    0.363030    0.367530     0.007504
AU1554   AU        0.147777    0.397652    0.404662     0.007504
AU1555   AU        0.186211    0.364682    0.406839     0.007504
AU1556   AU        0.184500    0.399312    0.367838     0.007504
AU1557   AU        0.222712    0.362697    0.367856     0.007504
AU1558   AU        0.224573    0.398372    0.406016     0.007504
AU1559   AU        0.265291    0.363095    0.408233     0.007504
AU1560   AU        0.264438    0.397630    0.370383     0.007504
AU1561   AU        0.303670    0.362778    0.371319     0.007504
AU1562   AU        0.299540    0.400214    0.405347     0.007504
AU1563   AU        0.340970    0.362340    0.408343     0.007504
AU1564   AU        0.340410    0.399775    0.369549     0.007504
AU1565   AU        0.379358    0.364604    0.369133     0.007504
AU1566   AU        0.377647    0.397460    0.408117     0.007504
AU1567   AU        0.417245    0.361273    0.406309     0.007504
AU1568   AU        0.419326    0.400630    0.371654     0.007504
AU1569   AU        0.456934    0.363355    0.368983     0.007504
AU1570   AU        0.457993    0.397214    0.409029     0.007504
AU1571   AU        0.495234    0.363164    0.407400     0.007504
AU1572   AU        0.494948    0.398532    0.367778     0.007504
AU1573   AU        0.533375    0.364556    0.369626     0.007504
AU1574   AU        0.531666    0.401150    0.405255     0.007504
AU1575   AU        0.570986    0.364799    0.406542     0.007504
AU1576   AU        0.570331    0.400928    0.368181     0.007504
AU1577   AU        0.610493    0.365565    0.367469     0.007504
AU1578   AU        0.609045    0.401434    0.407359     0.007504
AU1579   AU        0.645647    0.365614    0.407668     0.007504
AU1580   AU        0.648932    0.401419    0.365998     0.007504
AU1581   AU        0.686512    0.364827    0.369494     0.007504
AU1582   AU        0.685824    0.399183    0.407641     0.007504
AU1583   AU        0.725986    0.365624    0.408736     0.007504
AU1584   AU        0.726614    0.399963    0.368713     0.007504
AU1585   AU        0.764375    0.365159    0.371163     0.007504
AU1586   AU        0.766940    0.400437    0.407686     0.007504
AU1587   AU        0.802288    0.364734    0.406192     0.007504
AU1588   AU        0.805008    0.400107    0.370106     0.007504
NI1589   NI        0.833366    0.362763    0.366748     0.004307
NI1590   NI        0.838254    0.397115    0.410064     0.004307
NI1591   NI        0.873701    0.383955    0.378145     0.004307
NI1592   NI        0.872464    0.404975    0.330763     0.004307
NI1593   NI        0.899978    0.445492    0.456781     0.004307
NI1594   NI        0.020217    0.430868    0.360653     0.004307
NI1595   NI        0.000847    0.461012    0.450335     0.004307
NI1596   NI        0.039972    0.431828    0.403923     0.004307
NI1597   NI        0.033302    0.469099    0.369868     0.004307
NI1598   NI        0.069345    0.434345    0.366052     0.004307
NI1599   NI        0.070276    0.468783    0.404840     0.004307
AU1600   AU        0.106713    0.435150    0.406189     0.007504
AU1601   AU        0.110496    0.469970    0.370448     0.007504
AU1602   AU        0.145174    0.437179    0.369582     0.007504
AU1603   AU        0.143089    0.472609    0.408371     0.007504
AU1604   AU        0.184996    0.437108    0.409090     0.007504
AU1605   AU        0.186273    0.470852    0.367017     0.007504
AU1606   AU        0.224526    0.438271    0.369388     0.007504
AU1607   AU        0.224706    0.471635    0.406673     0.007504
AU1608   AU        0.263509    0.432807    0.408006     0.007504
AU1609   AU        0.264535    0.473973    0.368546     0.007504
AU1610   AU        0.300481    0.435874    0.369594     0.007504
AU1611   AU        0.300775    0.472561    0.406020     0.007504
AU1612   AU        0.339699    0.438338    0.406365     0.007504
AU1613   AU        0.339839    0.473401    0.367889     0.007504
AU1614   AU        0.378379    0.436574    0.368465     0.007504
AU1615   AU        0.377076    0.473656    0.407374     0.007504
AU1616   AU        0.416716    0.434673    0.408958     0.007504
AU1617   AU        0.415816    0.471594    0.371108     0.007504
AU1618   AU        0.456816    0.436492    0.370858     0.007504
AU1619   AU        0.454534    0.471443    0.405943     0.007504
AU1620   AU        0.494398    0.436072    0.408404     0.007504
AU1621   AU        0.494094    0.471099    0.368701     0.007504
AU1622   AU        0.532762    0.437891    0.369172     0.007504
AU1623   AU        0.530767    0.472288    0.406282     0.007504
AU1624   AU        0.570628    0.439794    0.408091     0.007504
AU1625   AU        0.570314    0.473619    0.366928     0.007504
AU1626   AU        0.609077    0.434949    0.367094     0.007504
AU1627   AU        0.607701    0.470657    0.406700     0.007504
AU1628   AU        0.648388    0.438112    0.406909     0.007504
AU1629   AU        0.650472    0.470599    0.367886     0.007504
AU1630   AU        0.689712    0.436264    0.365298     0.007504
AU1631   AU        0.689210    0.471341    0.404277     0.007504
AU1632   AU        0.728520    0.434089    0.404898     0.007504
AU1633   AU        0.730205    0.469054    0.367569     0.007504
AU1634   AU        0.768598    0.434931    0.369980     0.007504
AU1635   AU        0.769060    0.472421    0.406348     0.007504
AU1636   AU        0.805055    0.437881    0.406530     0.007504
AU1637   AU        0.805255    0.472821    0.367925     0.007504
NI1638   NI        0.839625    0.435759    0.368245     0.004307
NI1639   NI        0.837230    0.475526    0.412102     0.004307
NI1640   NI        0.867697    0.438203    0.411840     0.004307
NI1641   NI        0.860502    0.482841    0.366767     0.004307
NI1642   NI        0.884280    0.444380    0.354697     0.004307
NI1643   NI        0.882784    0.483369    0.407527     0.004307
NI1644   NI        0.041681    0.505519    0.412009     0.004307
NI1645   NI        0.000769    0.492462    0.346080     0.004307
NI1646   NI        0.072380    0.509528    0.365687     0.004307
NI1647   NI        0.073602    0.538457    0.409017     0.004307
AU1648   AU        0.108573    0.509178    0.405218     0.007504
AU1649   AU        0.110167    0.544886    0.367381     0.007504
AU1650   AU        0.145551    0.506229    0.369189     0.007504
AU1651   AU        0.147832    0.544558    0.405324     0.007504
AU1652   AU        0.184446    0.507397    0.408635     0.007504
AU1653   AU        0.184343    0.542673    0.368742     0.007504
AU1654   AU        0.223439    0.508364    0.368524     0.007504
AU1655   AU        0.223773    0.544452    0.406219     0.007504
AU1656   AU        0.264335    0.510376    0.405163     0.007504
AU1657   AU        0.262984    0.545115    0.369596     0.007504
AU1658   AU        0.301208    0.507497    0.366755     0.007504
AU1659   AU        0.303472    0.544513    0.405951     0.007504
AU1660   AU        0.340947    0.508483    0.407967     0.007504
AU1661   AU        0.340874    0.544576    0.367515     0.007504
AU1662   AU        0.379521    0.507770    0.369031     0.007504
AU1663   AU        0.379829    0.543549    0.406449     0.007504
AU1664   AU        0.415624    0.507806    0.406675     0.007504
AU1665   AU        0.416290    0.544774    0.370214     0.007504
AU1666   AU        0.456084    0.507332    0.370090     0.007504
AU1667   AU        0.453976    0.544165    0.406374     0.007504
AU1668   AU        0.491610    0.507009    0.408500     0.007504
AU1669   AU        0.494973    0.545788    0.369065     0.007504
AU1670   AU        0.530342    0.508200    0.367600     0.007504
AU1671   AU        0.532201    0.542409    0.406748     0.007504
AU1672   AU        0.571489    0.506433    0.405877     0.007504
AU1673   AU        0.571868    0.542991    0.367790     0.007504
AU1674   AU        0.609364    0.508523    0.368388     0.007504
AU1675   AU        0.612126    0.541370    0.404033     0.007504
AU1676   AU        0.652160    0.504729    0.406189     0.007504
AU1677   AU        0.649644    0.544429    0.367205     0.007504
AU1678   AU        0.687775    0.506790    0.366456     0.007504
AU1679   AU        0.688455    0.540669    0.406011     0.007504
AU1680   AU        0.729443    0.507790    0.404975     0.007504
AU1681   AU        0.727664    0.546446    0.368398     0.007504
AU1682   AU        0.768849    0.508303    0.368240     0.007504
AU1683   AU        0.766386    0.543762    0.404044     0.007504
AU1684   AU        0.803159    0.507068    0.411194     0.007504
AU1685   AU        0.799681    0.550179    0.366137     0.007504
NI1686   NI        0.830580    0.515828    0.366190     0.004307
NI1687   NI        0.820304    0.551038    0.407046     0.004307
NI1688   NI        0.854967    0.516959    0.404246     0.004307
NI1689   NI        0.871647    0.558759    0.400678     0.004307
NI1690   NI        0.040494    0.565780    0.414766     0.004307
NI1691   NI        0.086003    0.653094    0.371932     0.004307
NI1692   NI        0.042880    0.546328    0.361332     0.004307
NI1693   NI        0.060436    0.610081    0.408946     0.004307
NI1694   NI        0.116502    0.579317    0.408969     0.004307
NI1695   NI        0.111365    0.608519    0.374351     0.004307
AU1696   AU        0.148113    0.579511    0.370347     0.007504
AU1697   AU        0.149013    0.616832    0.404562     0.007504
AU1698   AU        0.184747    0.580452    0.405316     0.007504
AU1699   AU        0.187556    0.615279    0.368214     0.007504
AU1700   AU        0.221657    0.579742    0.365332     0.007504
AU1701   AU        0.224097    0.615726    0.410202     0.007504
AU1702   AU        0.263944    0.580504    0.407181     0.007504
AU1703   AU        0.260189    0.616687    0.366727     0.007504
AU1704   AU        0.302570    0.580065    0.368737     0.007504
AU1705   AU        0.299293    0.617851    0.409432     0.007504
AU1706   AU        0.340523    0.579990    0.406854     0.007504
AU1707   AU        0.340710    0.616166    0.366464     0.007504
AU1708   AU        0.378360    0.579003    0.368045     0.007504
AU1709   AU        0.375166    0.617689    0.406128     0.007504
AU1710   AU        0.414816    0.579814    0.406721     0.007504
AU1711   AU        0.415453    0.617643    0.366042     0.007504
AU1712   AU        0.452395    0.580910    0.369997     0.007504
AU1713   AU        0.453008    0.616114    0.407047     0.007504
AU1714   AU        0.496067    0.578199    0.408862     0.007504
AU1715   AU        0.491869    0.615330    0.371483     0.007504
AU1716   AU        0.533349    0.580222    0.370656     0.007504
AU1717   AU        0.532422    0.616777    0.407644     0.007504
AU1718   AU        0.570802    0.578042    0.408950     0.007504
AU1719   AU        0.571248    0.617268    0.368294     0.007504
AU1720   AU        0.609736    0.580501    0.370385     0.007504
AU1721   AU        0.607526    0.616894    0.406420     0.007504
AU1722   AU        0.648990    0.579659    0.404999     0.007504
AU1723   AU        0.647681    0.616064    0.369848     0.007504
AU1724   AU        0.686078    0.579696    0.369825     0.007504
AU1725   AU        0.685813    0.616633    0.409366     0.007504
AU1726   AU        0.728984    0.581610    0.408146     0.007504
AU1727   AU        0.722190    0.616718    0.371084     0.007504
AU1728   AU        0.763409    0.584891    0.367126     0.007504
AU1729   AU        0.755355    0.622552    0.408623     0.007504
NI1730   NI        0.788882    0.582641    0.407361     0.004307
NI1731   NI        0.782882    0.625245    0.367359     0.004307
NI1732   NI        0.846832    0.557754    0.360514     0.004307
NI1733   NI        0.819518    0.591172    0.372166     0.004307
NI1734   NI        0.880302    0.526765    0.360061     0.004307
NI1735   NI        0.866848    0.620703    0.373085     0.004307
NI1736   NI        0.101459    0.630013    0.415233     0.004307
NI1737   NI        0.083657    0.681361    0.417921     0.004307
NI1738   NI        0.130674    0.662433    0.407415     0.004307
NI1739   NI        0.119271    0.653364    0.337057     0.004307
NI1740   NI        0.154285    0.654629    0.371353     0.004307
NI1741   NI        0.160970    0.694381    0.403419     0.004307
AU1742   AU        0.185279    0.654335    0.406610     0.007504
NI1743   NI        0.189882    0.687684    0.367834     0.004307
AU1744   AU        0.223676    0.653963    0.370369     0.007504
AU1745   AU        0.226753    0.687921    0.408288     0.007504
AU1746   AU        0.263599    0.656144    0.406310     0.007504
AU1747   AU        0.263388    0.689640    0.367504     0.007504
AU1748   AU        0.301398    0.653596    0.369094     0.007504
AU1749   AU        0.301255    0.690395    0.405110     0.007504
AU1750   AU        0.338302    0.652403    0.406149     0.007504
AU1751   AU        0.339781    0.689042    0.366800     0.007504
AU1752   AU        0.376510    0.653711    0.366258     0.007504
AU1753   AU        0.379414    0.689755    0.404227     0.007504
AU1754   AU        0.416661    0.652667    0.405929     0.007504
AU1755   AU        0.417732    0.688732    0.369094     0.007504
AU1756   AU        0.458778    0.651664    0.368252     0.007504
AU1757   AU        0.454116    0.688462    0.404414     0.007504
AU1758   AU        0.494527    0.651975    0.407676     0.007504
AU1759   AU        0.495493    0.687727    0.369124     0.007504
AU1760   AU        0.532297    0.650280    0.368778     0.007504
AU1761   AU        0.529795    0.687641    0.406740     0.007504
AU1762   AU        0.569290    0.654024    0.408844     0.007504
AU1763   AU        0.568734    0.688886    0.370667     0.007504
AU1764   AU        0.609511    0.653411    0.372512     0.007504
AU1765   AU        0.609110    0.689239    0.408798     0.007504
AU1766   AU        0.648886    0.652824    0.407890     0.007504
AU1767   AU        0.648345    0.687605    0.368749     0.007504
AU1768   AU        0.687437    0.653303    0.370792     0.007504
AU1769   AU        0.683765    0.687516    0.409114     0.007504
AU1770   AU        0.720074    0.654265    0.409142     0.007504
NI1771   NI        0.717336    0.686191    0.372770     0.004307
NI1772   NI        0.749134    0.655152    0.373162     0.004307
NI1773   NI        0.752704    0.687150    0.410275     0.004307
NI1774   NI        0.786533    0.656357    0.408932     0.004307
NI1775   NI        0.788325    0.686497    0.373194     0.004307
NI1776   NI        0.825136    0.652106    0.383104     0.004307
NI1777   NI        0.827392    0.670495    0.428255     0.004307
NI1778   NI        0.118919    0.687212    0.369124     0.004307
NI1779   NI        0.149222    0.720789    0.369621     0.004307
NI1780   NI        0.156903    0.752254    0.410971     0.004307
NI1781   NI        0.195187    0.728190    0.418309     0.004307
NI1782   NI        0.191033    0.747586    0.377138     0.004307
NI1783   NI        0.224393    0.722575    0.369701     0.004307
NI1784   NI        0.227349    0.759367    0.408030     0.004307
AU1785   AU        0.263080    0.724776    0.405390     0.007504
NI1786   NI        0.259145    0.760482    0.368234     0.004307
AU1787   AU        0.299457    0.723024    0.366858     0.007504
AU1788   AU        0.299192    0.757369    0.404419     0.007504
AU1789   AU        0.337060    0.722409    0.406177     0.007504
AU1790   AU        0.338382    0.757932    0.368343     0.007504
AU1791   AU        0.378266    0.723723    0.368891     0.007504
AU1792   AU        0.378197    0.760046    0.407210     0.007504
AU1793   AU        0.417617    0.726914    0.406898     0.007504
AU1794   AU        0.417794    0.759759    0.369547     0.007504
AU1795   AU        0.456508    0.723721    0.371420     0.007504
AU1796   AU        0.454517    0.761113    0.407881     0.007504
AU1797   AU        0.493036    0.725765    0.407069     0.007504
AU1798   AU        0.493093    0.759628    0.368820     0.007504
AU1799   AU        0.531616    0.723711    0.370859     0.007504
AU1800   AU        0.532282    0.757642    0.408754     0.007504
AU1801   AU        0.571310    0.720761    0.407041     0.007504
NI1802   NI        0.568812    0.757714    0.371065     0.004307
AU1803   AU        0.608252    0.721875    0.367182     0.007504
NI1804   NI        0.603787    0.757031    0.404530     0.004307
AU1805   AU        0.645365    0.722191    0.407414     0.007504
NI1806   NI        0.649037    0.747512    0.367231     0.004307
NI1807   NI        0.684010    0.717309    0.371875     0.004307
NI1808   NI        0.685086    0.744145    0.409632     0.004307
NI1809   NI        0.722355    0.723635    0.405667     0.004307
NI1810   NI        0.721391    0.756032    0.373924     0.004307
NI1811   NI        0.765322    0.729883    0.358455     0.004307
NI1812   NI        0.755895    0.758737    0.409959     0.004307
NI1813   NI        0.796070    0.709276    0.410188     0.004307
NI1814   NI        0.194174    0.786280    0.407663     0.004307
NI1815   NI        0.215539    0.788111    0.363520     0.004307
NI1816   NI        0.267447    0.801044    0.412194     0.004307
NI1817   NI        0.256645    0.812115    0.368336     0.004307
NI1818   NI        0.296991    0.793267    0.367747     0.004307
NI1819   NI        0.298004    0.832109    0.398658     0.004307
NI1820   NI        0.336771    0.791765    0.408853     0.004307
NI1821   NI        0.331602    0.834363    0.364472     0.004307
NI1822   NI        0.371407    0.790647    0.368373     0.004307
NI1823   NI        0.371592    0.827001    0.401918     0.004307
NI1824   NI        0.414940    0.793374    0.403851     0.004307
NI1825   NI        0.413131    0.807363    0.357109     0.004307
NI1826   NI        0.460125    0.794270    0.363230     0.004307
NI1827   NI        0.460945    0.818017    0.405288     0.004307
NI1828   NI        0.493288    0.786636    0.407455     0.004307
NI1829   NI        0.495671    0.836067    0.370319     0.004307
NI1830   NI        0.527844    0.789109    0.364247     0.004307
NI1831   NI        0.514732    0.825504    0.409349     0.004307
NI1832   NI        0.557543    0.795881    0.413031     0.004307
NI1833   NI        0.551143    0.827244    0.376851     0.004307
NI1834   NI        0.610119    0.794278    0.364166     0.004307
NI1835   NI        0.606319    0.801736    0.408995     0.004307
NI1836   NI        0.646647    0.772506    0.409041     0.004307
NI1837   NI        0.646088    0.817790    0.388781     0.004307
NI1838   NI        0.678183    0.782840    0.368172     0.004307
NI1839   NI        0.713063    0.786184    0.405489     0.004307
NI1840   NI        0.415352    0.840370    0.396728     0.004307
NI1841   NI        0.487963    0.844286    0.318332     0.004307
NI1842   NI        0.503508    0.867963    0.406710     0.004307
NI1843   NI        0.230201    0.087005    0.445932     0.004307
NI1844   NI        0.349818    0.026882    0.502161     0.004307
NI1845   NI        0.339683    0.063222    0.457629     0.004307
NI1846   NI        0.380951    0.031505    0.456778     0.004307
NI1847   NI        0.374816    0.062432    0.495877     0.004307
NI1848   NI        0.415502    0.031917    0.495318     0.004307
NI1849   NI        0.419448    0.056285    0.448806     0.004307
NI1850   NI        0.441192    0.021428    0.458552     0.004307
NI1851   NI        0.455500    0.058370    0.482327     0.004307
NI1852   NI        0.493237    0.030365    0.478503     0.004307
NI1853   NI        0.498753    0.061390    0.444639     0.004307
NI1854   NI        0.532286    0.022861    0.441866     0.004307
NI1855   NI        0.534436    0.041516    0.485034     0.004307
NI1856   NI        0.578526    0.039437    0.446953     0.004307
NI1857   NI        0.599813    0.057438    0.486013     0.004307
NI1858   NI        0.612696    0.040873    0.409555     0.004307
NI1859   NI        0.201029    0.083625    0.484756     0.004307
NI1860   NI        0.142884    0.133213    0.564176     0.004307
NI1861   NI        0.192147    0.113205    0.443375     0.004307
NI1862   NI        0.258131    0.102891    0.407727     0.004307
NI1863   NI        0.231539    0.119880    0.488590     0.004307
NI1864   NI        0.264490    0.088395    0.487662     0.004307
NI1865   NI        0.267098    0.122303    0.448307     0.004307
NI1866   NI        0.301850    0.092116    0.452390     0.004307
NI1867   NI        0.299874    0.122936    0.484257     0.004307
NI1868   NI        0.335333    0.096095    0.492288     0.004307
AU1869   AU        0.342256    0.114673    0.447362     0.007504
NI1870   NI        0.378633    0.079514    0.446268     0.004307
AU1871   AU        0.378298    0.113356    0.484358     0.007504
NI1872   NI        0.417396    0.083037    0.485105     0.004307
AU1873   AU        0.418302    0.112654    0.446070     0.007504
NI1874   NI        0.460001    0.081849    0.444311     0.004307
AU1875   AU        0.457166    0.114813    0.482093     0.007504
NI1876   NI        0.498954    0.077753    0.484341     0.004307
AU1877   AU        0.493595    0.114733    0.445686     0.007504
NI1878   NI        0.535928    0.081922    0.448715     0.004307
AU1879   AU        0.532976    0.113189    0.483432     0.007504
NI1880   NI        0.569279    0.086707    0.482838     0.004307
AU1881   AU        0.569280    0.117425    0.445460     0.007504
NI1882   NI        0.599743    0.082795    0.451330     0.004307
NI1883   NI        0.612309    0.123519    0.488518     0.004307
NI1884   NI        0.649080    0.060022    0.461887     0.004307
NI1885   NI        0.645088    0.116462    0.443931     0.004307
NI1886   NI        0.701558    0.091127    0.484681     0.004307
NI1887   NI        0.656728    0.100020    0.488449     0.004307
NI1888   NI        0.743477    0.105770    0.482924     0.004307
NI1889   NI        0.720859    0.112917    0.438311     0.004307
NI1890   NI        0.756248    0.143184    0.452157     0.004307
NI1891   NI        0.108695    0.130636    0.451325     0.004307
NI1892   NI        0.125799    0.149451    0.496613     0.004307
NI1893   NI        0.127176    0.181065    0.458442     0.004307
NI1894   NI        0.157938    0.142118    0.464036     0.004307
NI1895   NI        0.161625    0.182770    0.488526     0.004307
NI1896   NI        0.198280    0.145891    0.481785     0.004307
NI1897   NI        0.188188    0.185129    0.449593     0.004307
NI1898   NI        0.226985    0.152710    0.448403     0.004307
AU1899   AU        0.225877    0.188290    0.488730     0.007504
AU1900   AU        0.265263    0.154400    0.484984     0.007504
AU1901   AU        0.265587    0.185890    0.449490     0.007504
AU1902   AU        0.302764    0.148708    0.446815     0.007504
AU1903   AU        0.304536    0.183492    0.489014     0.007504
AU1904   AU        0.341828    0.147836    0.485823     0.007504
AU1905   AU        0.339373    0.183525    0.447356     0.007504
AU1906   AU        0.377754    0.148106    0.448696     0.007504
AU1907   AU        0.378468    0.184058    0.487568     0.007504
AU1908   AU        0.417529    0.147584    0.484064     0.007504
AU1909   AU        0.417527    0.185477    0.445928     0.007504
AU1910   AU        0.456901    0.150093    0.446595     0.007504
AU1911   AU        0.454509    0.184604    0.483473     0.007504
AU1912   AU        0.493218    0.148230    0.484415     0.007504
AU1913   AU        0.495489    0.185754    0.445537     0.007504
AU1914   AU        0.532906    0.150639    0.447385     0.007504
AU1915   AU        0.533943    0.185546    0.486605     0.007504
AU1916   AU        0.573526    0.151102    0.484622     0.007504
AU1917   AU        0.573253    0.184569    0.445774     0.007504
AU1918   AU        0.612245    0.148833    0.446593     0.007504
AU1919   AU        0.612144    0.185486    0.484170     0.007504
AU1920   AU        0.650004    0.151280    0.485712     0.007504
AU1921   AU        0.648963    0.185224    0.445433     0.007504
NI1922   NI        0.686234    0.151812    0.448049     0.004307
AU1923   AU        0.689024    0.186174    0.486196     0.007504
NI1924   NI        0.728162    0.150469    0.487205     0.004307
AU1925   AU        0.724511    0.183818    0.446120     0.007504
NI1926   NI        0.786355    0.147318    0.410762     0.004307
NI1927   NI        0.760344    0.183387    0.487165     0.004307
NI1928   NI        0.795960    0.150272    0.490425     0.004307
NI1929   NI        0.791895    0.181336    0.443529     0.004307
NI1930   NI        0.837775    0.179754    0.493508     0.004307
NI1931   NI        0.062853    0.253469    0.459840     0.004307
NI1932   NI        0.098428    0.216512    0.448234     0.004307
NI1933   NI        0.101402    0.255136    0.485819     0.004307
NI1934   NI        0.134003    0.218295    0.487235     0.004307
NI1935   NI        0.125130    0.255328    0.448898     0.004307
NI1936   NI        0.152210    0.217688    0.447689     0.004307
AU1937   AU        0.154407    0.258079    0.489556     0.007504
AU1938   AU        0.188418    0.221178    0.485665     0.007504
AU1939   AU        0.184423    0.255601    0.445541     0.007504
AU1940   AU        0.224681    0.220268    0.448762     0.007504
AU1941   AU        0.223586    0.256521    0.488259     0.007504
AU1942   AU        0.262422    0.221319    0.489354     0.007504
AU1943   AU        0.262039    0.257359    0.448991     0.007504
AU1944   AU        0.301102    0.219870    0.449998     0.007504
AU1945   AU        0.303029    0.255348    0.485555     0.007504
AU1946   AU        0.341723    0.221437    0.484723     0.007504
AU1947   AU        0.341765    0.256133    0.446880     0.007504
AU1948   AU        0.380741    0.220918    0.447490     0.007504
AU1949   AU        0.379683    0.254933    0.485950     0.007504
AU1950   AU        0.417967    0.221318    0.484964     0.007504
AU1951   AU        0.418030    0.256329    0.446618     0.007504
AU1952   AU        0.455498    0.220426    0.448472     0.007504
AU1953   AU        0.457220    0.256100    0.485095     0.007504
AU1954   AU        0.495436    0.220793    0.484331     0.007504
AU1955   AU        0.496042    0.256194    0.444494     0.007504
AU1956   AU        0.534210    0.221830    0.445904     0.007504
AU1957   AU        0.534523    0.255586    0.486980     0.007504
AU1958   AU        0.572941    0.222704    0.485494     0.007504
AU1959   AU        0.573384    0.256573    0.448415     0.007504
AU1960   AU        0.611510    0.221580    0.444219     0.007504
AU1961   AU        0.615059    0.255861    0.485811     0.007504
AU1962   AU        0.649746    0.219133    0.484224     0.007504
AU1963   AU        0.649416    0.258106    0.445602     0.007504
AU1964   AU        0.690067    0.220740    0.446974     0.007504
AU1965   AU        0.687230    0.259350    0.485872     0.007504
AU1966   AU        0.724956    0.221721    0.485959     0.007504
AU1967   AU        0.725034    0.255343    0.445772     0.007504
NI1968   NI        0.755664    0.220127    0.451750     0.004307
AU1969   AU        0.758058    0.254370    0.481919     0.007504
NI1970   NI        0.801359    0.209372    0.486412     0.004307
NI1971   NI        0.787186    0.254802    0.446815     0.004307
NI1972   NI        0.817549    0.221880    0.439589     0.004307
NI1973   NI        0.854770    0.292174    0.483320     0.004307
NI1974   NI        0.814201    0.250330    0.401152     0.004307
NI1975   NI        0.060391    0.323745    0.525465     0.004307
NI1976   NI        0.048858    0.324764    0.448141     0.004307
NI1977   NI        0.087135    0.293312    0.449335     0.004307
NI1978   NI        0.087526    0.323136    0.481033     0.004307
AU1979   AU        0.123819    0.293776    0.488971     0.007504
AU1980   AU        0.120478    0.327540    0.449090     0.007504
AU1981   AU        0.152069    0.290443    0.449500     0.007504
AU1982   AU        0.151220    0.330250    0.487893     0.007504
AU1983   AU        0.185812    0.293219    0.485865     0.007504
AU1984   AU        0.186768    0.328777    0.445756     0.007504
AU1985   AU        0.225809    0.290527    0.449486     0.007504
AU1986   AU        0.224281    0.327613    0.484596     0.007504
AU1987   AU        0.263485    0.291206    0.487776     0.007504
AU1988   AU        0.265542    0.325874    0.446187     0.007504
AU1989   AU        0.304027    0.290632    0.448128     0.007504
AU1990   AU        0.302173    0.328521    0.485483     0.007504
AU1991   AU        0.341646    0.292158    0.485198     0.007504
AU1992   AU        0.343927    0.327693    0.445567     0.007504
AU1993   AU        0.378114    0.291845    0.445885     0.007504
AU1994   AU        0.377453    0.327442    0.488611     0.007504
AU1995   AU        0.416373    0.291786    0.484510     0.007504
AU1996   AU        0.419047    0.328119    0.448556     0.007504
AU1997   AU        0.455058    0.293736    0.448132     0.007504
AU1998   AU        0.457710    0.327836    0.487959     0.007504
AU1999   AU        0.496109    0.291622    0.485483     0.007504
AU2000   AU        0.494901    0.328099    0.444826     0.007504
AU2001   AU        0.533632    0.292650    0.444715     0.007504
AU2002   AU        0.532367    0.329696    0.485060     0.007504
AU2003   AU        0.569514    0.290882    0.485680     0.007504
AU2004   AU        0.573598    0.326466    0.448266     0.007504
AU2005   AU        0.611450    0.292440    0.447413     0.007504
AU2006   AU        0.611917    0.330554    0.486046     0.007504
AU2007   AU        0.649989    0.292904    0.484132     0.007504
AU2008   AU        0.649426    0.327994    0.446515     0.007504
AU2009   AU        0.688309    0.289395    0.444085     0.007504
AU2010   AU        0.687175    0.327721    0.486358     0.007504
AU2011   AU        0.723564    0.294001    0.484818     0.007504
AU2012   AU        0.726848    0.327684    0.445321     0.007504
AU2013   AU        0.761563    0.292800    0.445618     0.007504
AU2014   AU        0.764131    0.330020    0.484320     0.007504
NI2015   NI        0.788840    0.288203    0.484142     0.004307
AU2016   AU        0.799676    0.328615    0.446567     0.007504
NI2017   NI        0.819696    0.287897    0.446127     0.004307
NI2018   NI        0.818159    0.320191    0.488780     0.004307
NI2019   NI        0.833258    0.249486    0.474820     0.004307
NI2020   NI        0.854975    0.317196    0.442884     0.004307
NI2021   NI        0.014922    0.367701    0.431487     0.004307
NI2022   NI        0.029385    0.394203    0.503304     0.004307
NI2023   NI        0.058854    0.355915    0.485924     0.004307
NI2024   NI        0.057470    0.389843    0.445518     0.004307
NI2025   NI        0.087950    0.359699    0.448859     0.004307
NI2026   NI        0.082565    0.396533    0.489182     0.004307
AU2027   AU        0.114827    0.364042    0.486208     0.007504
AU2028   AU        0.111170    0.399687    0.445893     0.007504
AU2029   AU        0.147313    0.364907    0.444259     0.007504
AU2030   AU        0.146098    0.399807    0.484670     0.007504
AU2031   AU        0.185989    0.365244    0.483384     0.007504
AU2032   AU        0.185698    0.399229    0.445691     0.007504
AU2033   AU        0.225063    0.364518    0.444931     0.007504
AU2034   AU        0.223540    0.399554    0.485922     0.007504
AU2035   AU        0.263278    0.363506    0.485554     0.007504
AU2036   AU        0.264446    0.397525    0.446830     0.007504
AU2037   AU        0.303557    0.363594    0.448002     0.007504
AU2038   AU        0.303396    0.400323    0.485743     0.007504
AU2039   AU        0.342640    0.363950    0.485115     0.007504
AU2040   AU        0.339202    0.398791    0.444528     0.007504
AU2041   AU        0.378864    0.360867    0.447804     0.007504
AU2042   AU        0.380345    0.399252    0.486320     0.007504
AU2043   AU        0.417680    0.361978    0.486557     0.007504
AU2044   AU        0.416579    0.399618    0.445867     0.007504
AU2045   AU        0.455952    0.363857    0.447797     0.007504
AU2046   AU        0.456768    0.397685    0.484474     0.007504
AU2047   AU        0.494951    0.364643    0.488320     0.007504
AU2048   AU        0.493849    0.399310    0.446205     0.007504
AU2049   AU        0.535228    0.365909    0.447154     0.007504
AU2050   AU        0.533091    0.399041    0.487163     0.007504
AU2051   AU        0.572172    0.364259    0.484929     0.007504
AU2052   AU        0.570770    0.402103    0.444428     0.007504
AU2053   AU        0.609533    0.365312    0.448119     0.007504
AU2054   AU        0.611184    0.401017    0.488098     0.007504
AU2055   AU        0.650503    0.366140    0.484204     0.007504
AU2056   AU        0.648032    0.400536    0.448126     0.007504
AU2057   AU        0.689338    0.365437    0.447521     0.007504
AU2058   AU        0.688191    0.401085    0.487344     0.007504
AU2059   AU        0.729006    0.365150    0.485044     0.007504
AU2060   AU        0.727860    0.400088    0.446509     0.007504
AU2061   AU        0.766134    0.364848    0.445449     0.007504
AU2062   AU        0.766715    0.402178    0.482783     0.007504
AU2063   AU        0.801495    0.363705    0.484391     0.007504
AU2064   AU        0.800829    0.398418    0.446144     0.007504
NI2065   NI        0.835655    0.362669    0.446382     0.004307
NI2066   NI        0.833411    0.395069    0.482219     0.004307
NI2067   NI        0.851043    0.357490    0.495651     0.004307
NI2068   NI        0.868721    0.402578    0.449297     0.004307
NI2069   NI        0.863018    0.350273    0.409164     0.004307
NI2070   NI        0.883597    0.358980    0.455959     0.004307
NI2071   NI        0.018795    0.414216    0.449611     0.004307
NI2072   NI        0.013796    0.462753    0.496154     0.004307
NI2073   NI        0.050634    0.434243    0.490097     0.004307
NI2074   NI        0.049143    0.467238    0.447976     0.004307
NI2075   NI        0.069899    0.428627    0.443813     0.004307
NI2076   NI        0.077255    0.469692    0.483539     0.004307
AU2077   AU        0.108475    0.434482    0.483513     0.007504
AU2078   AU        0.107280    0.472680    0.445715     0.007504
AU2079   AU        0.144697    0.436253    0.442481     0.007504
AU2080   AU        0.145599    0.472271    0.482672     0.007504
AU2081   AU        0.185022    0.436086    0.483856     0.007504
AU2082   AU        0.186276    0.471617    0.445819     0.007504
AU2083   AU        0.227636    0.436875    0.446152     0.007504
AU2084   AU        0.225193    0.470756    0.484302     0.007504
AU2085   AU        0.265046    0.434300    0.485222     0.007504
AU2086   AU        0.264472    0.472194    0.445094     0.007504
AU2087   AU        0.301036    0.435219    0.443951     0.007504
AU2088   AU        0.300576    0.471664    0.482976     0.007504
AU2089   AU        0.340564    0.437191    0.484513     0.007504
AU2090   AU        0.338549    0.473592    0.445925     0.007504
AU2091   AU        0.378172    0.434296    0.443090     0.007504
AU2092   AU        0.378013    0.473054    0.484540     0.007504
AU2093   AU        0.419104    0.434378    0.485116     0.007504
AU2094   AU        0.418435    0.469619    0.444700     0.007504
AU2095   AU        0.454877    0.436208    0.444806     0.007504
AU2096   AU        0.455708    0.470348    0.484616     0.007504
AU2097   AU        0.493319    0.434984    0.485300     0.007504
AU2098   AU        0.493303    0.469795    0.443803     0.007504
AU2099   AU        0.531313    0.434740    0.447331     0.007504
AU2100   AU        0.529904    0.470603    0.483491     0.007504
AU2101   AU        0.571984    0.436642    0.486742     0.007504
AU2102   AU        0.571541    0.472721    0.445794     0.007504
AU2103   AU        0.610270    0.434804    0.445750     0.007504
AU2104   AU        0.610713    0.473128    0.483128     0.007504
AU2105   AU        0.649828    0.435609    0.487990     0.007504
AU2106   AU        0.646378    0.472149    0.444483     0.007504
AU2107   AU        0.687785    0.436634    0.445610     0.007504
AU2108   AU        0.688750    0.474185    0.487254     0.007504
AU2109   AU        0.726985    0.438342    0.484926     0.007504
AU2110   AU        0.727544    0.469559    0.443148     0.007504
AU2111   AU        0.766605    0.435609    0.445016     0.007504
AU2112   AU        0.766038    0.471935    0.484708     0.007504
AU2113   AU        0.801691    0.435889    0.483199     0.007504
AU2114   AU        0.802978    0.470980    0.446068     0.007504
NI2115   NI        0.835814    0.433350    0.446538     0.004307
NI2116   NI        0.829464    0.472779    0.487679     0.004307
NI2117   NI        0.858340    0.435292    0.487602     0.004307
NI2118   NI        0.854859    0.473717    0.451882     0.004307
NI2119   NI        0.902146    0.489803    0.448862     0.004307
NI2120   NI        0.884412    0.479559    0.491462     0.004307
NI2121   NI        0.018099    0.507834    0.454407     0.004307
NI2122   NI        0.055469    0.509015    0.486450     0.004307
NI2123   NI        0.046958    0.543141    0.453247     0.004307
NI2124   NI        0.074068    0.510603    0.445219     0.004307
NI2125   NI        0.086439    0.547987    0.486038     0.004307
AU2126   AU        0.107871    0.509548    0.482990     0.007504
AU2127   AU        0.109831    0.542679    0.442936     0.007504
AU2128   AU        0.145572    0.507646    0.445403     0.007504
AU2129   AU        0.147719    0.541510    0.483200     0.007504
AU2130   AU        0.183866    0.507037    0.482647     0.007504
AU2131   AU        0.185349    0.543842    0.445207     0.007504
AU2132   AU        0.225248    0.507659    0.445053     0.007504
AU2133   AU        0.222684    0.543567    0.483296     0.007504
AU2134   AU        0.264460    0.508047    0.483961     0.007504
AU2135   AU        0.261901    0.542711    0.445935     0.007504
AU2136   AU        0.303055    0.508264    0.445570     0.007504
AU2137   AU        0.302298    0.544881    0.484636     0.007504
AU2138   AU        0.340133    0.509216    0.484660     0.007504
AU2139   AU        0.340154    0.545626    0.446307     0.007504
AU2140   AU        0.378629    0.507038    0.447982     0.007504
AU2141   AU        0.378727    0.545541    0.486033     0.007504
AU2142   AU        0.418160    0.506010    0.485358     0.007504
AU2143   AU        0.413932    0.543556    0.446142     0.007504
AU2144   AU        0.453797    0.505152    0.444748     0.007504
AU2145   AU        0.455337    0.543669    0.482713     0.007504
AU2146   AU        0.490471    0.506717    0.484521     0.007504
AU2147   AU        0.494097    0.542964    0.445584     0.007504
AU2148   AU        0.529683    0.507395    0.444697     0.007504
AU2149   AU        0.532849    0.541518    0.482174     0.007504
AU2150   AU        0.571990    0.508459    0.484366     0.007504
AU2151   AU        0.572811    0.542858    0.444794     0.007504
AU2152   AU        0.611451    0.507433    0.443025     0.007504
AU2153   AU        0.608834    0.544444    0.482646     0.007504
AU2154   AU        0.648992    0.507353    0.483328     0.007504
AU2155   AU        0.649887    0.544109    0.443634     0.007504
AU2156   AU        0.688324    0.504045    0.444650     0.007504
AU2157   AU        0.689349    0.542502    0.482853     0.007504
AU2158   AU        0.727288    0.506446    0.485009     0.007504
AU2159   AU        0.729530    0.543334    0.444952     0.007504
AU2160   AU        0.763427    0.505433    0.445065     0.007504
AU2161   AU        0.759520    0.543142    0.486963     0.007504
AU2162   AU        0.799907    0.509243    0.485816     0.007504
AU2163   AU        0.786861    0.543926    0.447882     0.007504
NI2164   NI        0.831332    0.514462    0.448798     0.004307
NI2165   NI        0.827667    0.551986    0.487771     0.004307
NI2166   NI        0.863952    0.519737    0.481871     0.004307
NI2167   NI        0.859498    0.556255    0.458139     0.004307
NI2168   NI        0.892176    0.533067    0.444259     0.004307
NI2169   NI        0.048040    0.575845    0.482385     0.004307
NI2170   NI        0.018630    0.609969    0.381898     0.004307
NI2171   NI        0.080496    0.577599    0.441614     0.004307
NI2172   NI        0.073157    0.618660    0.490431     0.004307
NI2173   NI        0.122662    0.579331    0.483178     0.004307
NI2174   NI        0.107894    0.614245    0.460356     0.004307
AU2175   AU        0.150474    0.578488    0.444884     0.007504
AU2176   AU        0.150351    0.613572    0.483287     0.007504
AU2177   AU        0.186599    0.579163    0.484146     0.007504
AU2178   AU        0.184795    0.615028    0.443509     0.007504
AU2179   AU        0.224627    0.579590    0.444612     0.007504
AU2180   AU        0.224358    0.616121    0.484985     0.007504
AU2181   AU        0.264531    0.577629    0.486278     0.007504
AU2182   AU        0.264373    0.616865    0.447663     0.007504
AU2183   AU        0.301047    0.578514    0.445232     0.007504
AU2184   AU        0.303756    0.617613    0.485817     0.007504
AU2185   AU        0.339768    0.581071    0.483333     0.007504
AU2186   AU        0.342171    0.616743    0.445800     0.007504
AU2187   AU        0.377676    0.580185    0.446868     0.007504
AU2188   AU        0.379169    0.615702    0.486004     0.007504
AU2189   AU        0.416238    0.579143    0.486070     0.007504
AU2190   AU        0.418285    0.616347    0.447531     0.007504
AU2191   AU        0.454002    0.579947    0.445378     0.007504
AU2192   AU        0.455596    0.614426    0.486062     0.007504
AU2193   AU        0.493403    0.577387    0.484957     0.007504
AU2194   AU        0.493846    0.614558    0.445827     0.007504
AU2195   AU        0.533947    0.578547    0.448097     0.007504
AU2196   AU        0.532263    0.615791    0.484323     0.007504
AU2197   AU        0.571901    0.578441    0.484049     0.007504
AU2198   AU        0.570435    0.614271    0.446571     0.007504
AU2199   AU        0.608877    0.579722    0.444996     0.007504
AU2200   AU        0.610258    0.616383    0.484146     0.007504
AU2201   AU        0.649176    0.577323    0.482916     0.007504
AU2202   AU        0.648069    0.614611    0.445582     0.007504
AU2203   AU        0.686664    0.579557    0.446497     0.007504
AU2204   AU        0.687195    0.616602    0.483196     0.007504
AU2205   AU        0.726744    0.581384    0.484008     0.007504
AU2206   AU        0.724183    0.618347    0.446183     0.007504
AU2207   AU        0.762632    0.583821    0.445848     0.007504
AU2208   AU        0.760222    0.616647    0.486590     0.007504
NI2209   NI        0.786205    0.579640    0.486238     0.004307
NI2210   NI        0.790525    0.624180    0.445030     0.004307
NI2211   NI        0.815936    0.581166    0.441294     0.004307
NI2212   NI        0.812080    0.619514    0.487261     0.004307
NI2213   NI        0.848297    0.596118    0.488511     0.004307
NI2214   NI        0.886657    0.620337    0.438461     0.004307
NI2215   NI        0.063592    0.640403    0.452788     0.004307
NI2216   NI        0.122748    0.685278    0.448497     0.004307
NI2217   NI        0.110344    0.647289    0.485377     0.004307
NI2218   NI        0.075343    0.680777    0.499933     0.004307
NI2219   NI        0.153283    0.648637    0.448932     0.004307
NI2220   NI        0.158537    0.687853    0.483296     0.004307
AU2221   AU        0.189064    0.651380    0.483758     0.007504
NI2222   NI        0.187973    0.685634    0.442405     0.004307
AU2223   AU        0.224500    0.650153    0.445610     0.007504
AU2224   AU        0.225340    0.685905    0.483958     0.007504
AU2225   AU        0.264055    0.653229    0.484003     0.007504
AU2226   AU        0.262951    0.689556    0.446099     0.007504
AU2227   AU        0.301347    0.655185    0.445629     0.007504
AU2228   AU        0.304093    0.688464    0.484219     0.007504
AU2229   AU        0.342467    0.653756    0.484530     0.007504
AU2230   AU        0.341175    0.690515    0.445225     0.007504
AU2231   AU        0.378542    0.653983    0.446967     0.007504
AU2232   AU        0.379307    0.690853    0.482934     0.007504
AU2233   AU        0.416264    0.654614    0.484766     0.007504
AU2234   AU        0.416171    0.687743    0.442734     0.007504
AU2235   AU        0.452752    0.652483    0.444271     0.007504
AU2236   AU        0.453999    0.688791    0.482008     0.007504
AU2237   AU        0.492808    0.652011    0.486084     0.007504
AU2238   AU        0.492246    0.689585    0.446428     0.007504
AU2239   AU        0.532345    0.651903    0.446345     0.007504
AU2240   AU        0.532110    0.687134    0.484012     0.007504
AU2241   AU        0.573270    0.651601    0.485656     0.007504
AU2242   AU        0.572619    0.687889    0.446109     0.007504
AU2243   AU        0.610020    0.651540    0.445328     0.007504
AU2244   AU        0.610256    0.687310    0.484090     0.007504
AU2245   AU        0.648411    0.650540    0.484503     0.007504
AU2246   AU        0.648820    0.688672    0.444478     0.007504
AU2247   AU        0.684037    0.652913    0.448379     0.007504
AU2248   AU        0.685715    0.684060    0.483343     0.007504
AU2249   AU        0.724352    0.651350    0.482837     0.007504
NI2250   NI        0.723050    0.689572    0.443803     0.004307
NI2251   NI        0.756698    0.654224    0.448478     0.004307
NI2252   NI        0.752946    0.693106    0.478448     0.004307
NI2253   NI        0.785945    0.657599    0.485695     0.004307
NI2254   NI        0.786074    0.686453    0.447906     0.004307
NI2255   NI        0.846540    0.596999    0.408745     0.004307
NI2256   NI        0.833819    0.618990    0.445227     0.004307
NI2257   NI        0.124721    0.719946    0.481485     0.004307
NI2258   NI        0.156088    0.719158    0.440322     0.004307
NI2259   NI        0.119656    0.712259    0.412800     0.004307
NI2260   NI        0.189876    0.718063    0.474047     0.004307
NI2261   NI        0.185252    0.759254    0.454271     0.004307
NI2262   NI        0.228600    0.726263    0.449931     0.004307
NI2263   NI        0.232120    0.755613    0.483557     0.004307
AU2264   AU        0.263871    0.721643    0.483797     0.007504
NI2265   NI        0.264977    0.761174    0.446493     0.004307
AU2266   AU        0.301484    0.724016    0.446005     0.007504
NI2267   NI        0.301452    0.757074    0.483145     0.004307
AU2268   AU        0.339051    0.724244    0.483155     0.007504
AU2269   AU        0.339405    0.759489    0.443889     0.007504
AU2270   AU        0.378435    0.725075    0.443916     0.007504
AU2271   AU        0.380155    0.759985    0.484036     0.007504
AU2272   AU        0.417297    0.725830    0.481838     0.007504
AU2273   AU        0.416010    0.761763    0.445812     0.007504
AU2274   AU        0.453709    0.724779    0.443961     0.007504
AU2275   AU        0.455770    0.759575    0.482495     0.007504
AU2276   AU        0.492731    0.723902    0.482211     0.007504
AU2277   AU        0.493839    0.758893    0.445058     0.007504
AU2278   AU        0.531457    0.721095    0.446617     0.007504
AU2279   AU        0.534088    0.755891    0.481162     0.007504
AU2280   AU        0.569454    0.719967    0.483515     0.007504
AU2281   AU        0.570711    0.756197    0.446777     0.007504
AU2282   AU        0.610132    0.722704    0.446480     0.007504
NI2283   NI        0.615520    0.750626    0.483653     0.004307
AU2284   AU        0.652310    0.717194    0.483885     0.007504
NI2285   NI        0.652585    0.748503    0.448460     0.004307
NI2286   NI        0.683042    0.718742    0.444160     0.004307
NI2287   NI        0.683517    0.755766    0.488512     0.004307
NI2288   NI        0.714235    0.720342    0.476658     0.004307
NI2289   NI        0.716913    0.750792    0.446382     0.004307
NI2290   NI        0.759047    0.723095    0.447261     0.004307
NI2291   NI        0.809406    0.702636    0.481693     0.004307
NI2292   NI        0.839658    0.667727    0.477665     0.004307
NI2293   NI        0.207132    0.794026    0.492770     0.004307
NI2294   NI        0.223624    0.796916    0.445103     0.004307
NI2295   NI        0.265857    0.795444    0.480682     0.004307
NI2296   NI        0.164231    0.796029    0.469559     0.004307
NI2297   NI        0.300337    0.793617    0.448266     0.004307
NI2298   NI        0.298373    0.831262    0.487104     0.004307
NI2299   NI        0.337770    0.793813    0.483331     0.004307
NI2300   NI        0.337812    0.834110    0.449385     0.004307
NI2301   NI        0.379252    0.797042    0.447974     0.004307
NI2302   NI        0.369809    0.825054    0.484014     0.004307
NI2303   NI        0.413137    0.798276    0.482060     0.004307
NI2304   NI        0.406027    0.837094    0.445198     0.004307
NI2305   NI        0.452358    0.792643    0.443914     0.004307
NI2306   NI        0.458604    0.809512    0.490687     0.004307
NI2307   NI        0.496106    0.780552    0.486041     0.004307
NI2308   NI        0.493264    0.811466    0.448765     0.004307
NI2309   NI        0.530683    0.787643    0.449950     0.004307
NI2310   NI        0.547335    0.800331    0.498970     0.004307
NI2311   NI        0.590748    0.784872    0.481127     0.004307
NI2312   NI        0.565257    0.821260    0.461370     0.004307
NI2313   NI        0.615773    0.773383    0.446137     0.004307
NI2314   NI        0.584542    0.862860    0.457079     0.004307
NI2315   NI        0.649540    0.785287    0.476458     0.004307
NI2316   NI        0.615598    0.819694    0.458381     0.004307
NI2317   NI        0.687301    0.780131    0.443409     0.004307
NI2318   NI        0.725313    0.780131    0.483235     0.004307
NI2319   NI        0.331720    0.858684    0.408827     0.004307
NI2320   NI        0.422153    0.842703    0.491948     0.004307
NI2321   NI        0.456726    0.842951    0.459672     0.004307
NI2322   NI        0.512934    0.827071    0.483769     0.004307
NI2323   NI        0.550374    0.849813    0.424655     0.004307
NI2324   NI        0.270436    0.061471    0.523291     0.004307
NI2325   NI        0.314955    0.053869    0.536674     0.004307
NI2326   NI        0.363339    0.052035    0.544207     0.004307
NI2327   NI        0.382145    0.051471    0.597092     0.004307
NI2328   NI        0.412340    0.064572    0.529080     0.004307
NI2329   NI        0.450100    0.027345    0.536194     0.004307
NI2330   NI        0.455721    0.059214    0.568968     0.004307
NI2331   NI        0.501851    0.044953    0.526706     0.004307
NI2332   NI        0.536064    0.066199    0.567215     0.004307
NI2333   NI        0.572828    0.066922    0.524543     0.004307
NI2334   NI        0.578586    0.059450    0.601307     0.004307
NI2335   NI        0.616956    0.069649    0.566013     0.004307
NI2336   NI        0.196347    0.113052    0.519852     0.004307
NI2337   NI        0.223886    0.074143    0.528938     0.004307
NI2338   NI        0.226297    0.109396    0.564744     0.004307
NI2339   NI        0.299957    0.099594    0.524755     0.004307
NI2340   NI        0.261194    0.130303    0.526414     0.004307
NI2341   NI        0.300929    0.058369    0.490962     0.004307
NI2342   NI        0.298616    0.130433    0.567113     0.004307
NI2343   NI        0.329688    0.096424    0.560931     0.004307
NI2344   NI        0.340751    0.125061    0.524905     0.004307
NI2345   NI        0.377533    0.092074    0.530595     0.004307
NI2346   NI        0.375791    0.120185    0.564182     0.004307
NI2347   NI        0.413094    0.091063    0.563082     0.004307
AU2348   AU        0.419098    0.113745    0.522013     0.007504
NI2349   NI        0.457480    0.077358    0.524908     0.004307
AU2350   AU        0.457749    0.115751    0.561658     0.007504
NI2351   NI        0.494207    0.080452    0.552382     0.004307
AU2352   AU        0.493541    0.114333    0.521629     0.007504
NI2353   NI        0.529232    0.084559    0.518179     0.004307
AU2354   AU        0.534219    0.115871    0.561302     0.007504
NI2355   NI        0.578902    0.097279    0.566092     0.004307
AU2356   AU        0.569727    0.116966    0.524467     0.007504
NI2357   NI        0.615177    0.090976    0.517146     0.004307
NI2358   NI        0.610923    0.126390    0.562793     0.004307
NI2359   NI        0.650062    0.101971    0.567284     0.004307
NI2360   NI        0.647375    0.123410    0.524896     0.004307
NI2361   NI        0.686472    0.093958    0.528721     0.004307
NI2362   NI        0.687434    0.131574    0.557608     0.004307
NI2363   NI        0.729600    0.114733    0.526595     0.004307
NI2364   NI        0.129173    0.185893    0.523986     0.004307
NI2365   NI        0.164854    0.150690    0.517852     0.004307
NI2366   NI        0.152098    0.176279    0.560997     0.004307
NI2367   NI        0.189236    0.144985    0.567127     0.004307
NI2368   NI        0.194548    0.185636    0.527171     0.004307
NI2369   NI        0.221490    0.152102    0.524296     0.004307
AU2370   AU        0.225337    0.187764    0.562654     0.007504
NI2371   NI        0.257452    0.155800    0.563881     0.004307
AU2372   AU        0.264049    0.184059    0.523662     0.007504
AU2373   AU        0.302543    0.150379    0.525155     0.007504
AU2374   AU        0.302352    0.182411    0.561841     0.007504
AU2375   AU        0.341119    0.151203    0.563278     0.007504
AU2376   AU        0.343665    0.185170    0.523946     0.007504
AU2377   AU        0.382247    0.146056    0.523823     0.007504
AU2378   AU        0.378867    0.183384    0.566642     0.007504
AU2379   AU        0.419404    0.150257    0.561513     0.007504
AU2380   AU        0.416928    0.181299    0.523659     0.007504
AU2381   AU        0.455242    0.147190    0.522206     0.007504
AU2382   AU        0.454831    0.184877    0.564605     0.007504
AU2383   AU        0.495275    0.148836    0.561064     0.007504
AU2384   AU        0.492652    0.182979    0.523158     0.007504
AU2385   AU        0.531285    0.149405    0.521854     0.007504
AU2386   AU        0.535397    0.182131    0.560104     0.007504
AU2387   AU        0.570518    0.149550    0.562128     0.007504
AU2388   AU        0.572656    0.185742    0.523950     0.007504
AU2389   AU        0.606981    0.153305    0.526839     0.007504
AU2390   AU        0.609894    0.184570    0.562008     0.007504
NI2391   NI        0.643220    0.156864    0.565525     0.004307
AU2392   AU        0.645825    0.185493    0.523340     0.007504
NI2393   NI        0.687903    0.154148    0.521068     0.004307
NI2394   NI        0.684245    0.185911    0.565140     0.004307
NI2395   NI        0.729217    0.151603    0.558244     0.004307
NI2396   NI        0.720545    0.187526    0.525852     0.004307
NI2397   NI        0.769317    0.152517    0.530482     0.004307
NI2398   NI        0.757874    0.187162    0.553684     0.004307
NI2399   NI        0.791357    0.192833    0.526206     0.004307
NI2400   NI        0.052071    0.268615    0.503037     0.004307
NI2401   NI        0.096234    0.221135    0.518328     0.004307
NI2402   NI        0.096226    0.249135    0.563669     0.004307
NI2403   NI        0.123646    0.211910    0.560340     0.004307
NI2404   NI        0.122522    0.253151    0.526919     0.004307
NI2405   NI        0.161999    0.219969    0.526362     0.004307
AU2406   AU        0.148543    0.257483    0.565017     0.007504
AU2407   AU        0.187434    0.221083    0.567935     0.007504
AU2408   AU        0.187130    0.255780    0.527215     0.007504
AU2409   AU        0.223856    0.221316    0.528162     0.007504
AU2410   AU        0.225836    0.256247    0.566234     0.007504
AU2411   AU        0.265928    0.219999    0.564197     0.007504
AU2412   AU        0.262267    0.255158    0.528181     0.007504
AU2413   AU        0.302835    0.219729    0.525167     0.007504
AU2414   AU        0.303005    0.257263    0.565491     0.007504
AU2415   AU        0.341541    0.219830    0.564499     0.007504
AU2416   AU        0.339081    0.255761    0.527402     0.007504
AU2417   AU        0.379862    0.219594    0.525759     0.007504
AU2418   AU        0.378531    0.254875    0.565356     0.007504
AU2419   AU        0.415420    0.218996    0.563918     0.007504
AU2420   AU        0.417703    0.254623    0.527016     0.007504
AU2421   AU        0.456665    0.220152    0.522754     0.007504
AU2422   AU        0.455218    0.256015    0.563704     0.007504
AU2423   AU        0.493591    0.220718    0.561976     0.007504
AU2424   AU        0.494785    0.256078    0.524308     0.007504
AU2425   AU        0.532330    0.218137    0.524474     0.007504
AU2426   AU        0.535246    0.254037    0.564028     0.007504
AU2427   AU        0.575301    0.217829    0.562477     0.007504
AU2428   AU        0.572469    0.255132    0.525623     0.007504
AU2429   AU        0.611723    0.220078    0.524016     0.007504
AU2430   AU        0.611758    0.253536    0.563876     0.007504
AU2431   AU        0.650973    0.221677    0.562099     0.007504
AU2432   AU        0.650896    0.258117    0.525850     0.007504
AU2433   AU        0.687120    0.220921    0.523950     0.007504
AU2434   AU        0.688257    0.254389    0.561955     0.007504
AU2435   AU        0.723672    0.221718    0.561451     0.007504
AU2436   AU        0.726921    0.255256    0.522558     0.007504
NI2437   NI        0.756967    0.220485    0.518341     0.004307
NI2438   NI        0.767341    0.254890    0.558862     0.004307
NI2439   NI        0.797218    0.220491    0.566233     0.004307
NI2440   NI        0.798816    0.249126    0.513418     0.004307
NI2441   NI        0.838286    0.213857    0.540510     0.004307
NI2442   NI        0.823984    0.291061    0.599430     0.004307
NI2443   NI        0.821237    0.256444    0.557345     0.004307
NI2444   NI        0.055016    0.287041    0.559465     0.004307
NI2445   NI        0.028423    0.356077    0.533047     0.004307
NI2446   NI        0.092241    0.286780    0.528631     0.004307
NI2447   NI        0.084243    0.325940    0.567877     0.004307
NI2448   NI        0.118259    0.292770    0.563547     0.004307
AU2449   AU        0.113863    0.329040    0.525513     0.007504
AU2450   AU        0.151070    0.292317    0.527150     0.007504
AU2451   AU        0.149431    0.327195    0.564098     0.007504
AU2452   AU        0.186573    0.293191    0.565315     0.007504
AU2453   AU        0.184331    0.328570    0.524585     0.007504
AU2454   AU        0.224043    0.291987    0.526563     0.007504
AU2455   AU        0.225335    0.329631    0.561541     0.007504
AU2456   AU        0.262814    0.292890    0.566950     0.007504
AU2457   AU        0.264516    0.329058    0.524303     0.007504
AU2458   AU        0.302328    0.290435    0.524812     0.007504
AU2459   AU        0.302729    0.328575    0.565534     0.007504
AU2460   AU        0.339235    0.292004    0.563581     0.007504
AU2461   AU        0.339599    0.328585    0.527058     0.007504
AU2462   AU        0.378067    0.290986    0.524408     0.007504
AU2463   AU        0.380058    0.330537    0.563246     0.007504
AU2464   AU        0.419082    0.292106    0.563034     0.007504
AU2465   AU        0.416073    0.326886    0.523592     0.007504
AU2466   AU        0.455950    0.291163    0.523514     0.007504
AU2467   AU        0.456769    0.326453    0.562795     0.007504
AU2468   AU        0.495443    0.290044    0.562397     0.007504
AU2469   AU        0.495566    0.327132    0.525094     0.007504
AU2470   AU        0.532792    0.290630    0.522240     0.007504
AU2471   AU        0.532752    0.328955    0.562064     0.007504
AU2472   AU        0.571656    0.290372    0.561116     0.007504
AU2473   AU        0.571655    0.326815    0.525672     0.007504
AU2474   AU        0.611169    0.291381    0.524403     0.007504
AU2475   AU        0.612119    0.327741    0.563742     0.007504
AU2476   AU        0.648554    0.291606    0.567017     0.007504
AU2477   AU        0.649868    0.330819    0.524435     0.007504
AU2478   AU        0.689522    0.292344    0.528018     0.007504
AU2479   AU        0.689460    0.328205    0.562251     0.007504
AU2480   AU        0.730432    0.291433    0.563307     0.007504
AU2481   AU        0.727295    0.328720    0.524092     0.007504
AU2482   AU        0.763296    0.293463    0.525261     0.007504
AU2483   AU        0.762220    0.326865    0.566174     0.007504
NI2484   NI        0.788859    0.289698    0.567607     0.004307
NI2485   NI        0.793025    0.331643    0.528220     0.004307
NI2486   NI        0.814220    0.292879    0.526237     0.004307
NI2487   NI        0.815276    0.328284    0.568308     0.004307
NI2488   NI        0.872978    0.278241    0.576642     0.004307
NI2489   NI        0.854359    0.327256    0.529063     0.004307
NI2490   NI        0.061978    0.367069    0.568176     0.004307
NI2491   NI        0.061095    0.400936    0.535548     0.004307
NI2492   NI        0.082435    0.363693    0.528276     0.004307
NI2493   NI        0.091959    0.400591    0.571228     0.004307
AU2494   AU        0.112256    0.360427    0.567247     0.007504
AU2495   AU        0.115324    0.401199    0.524450     0.007504
AU2496   AU        0.147856    0.363486    0.527536     0.007504
AU2497   AU        0.146810    0.398667    0.562789     0.007504
AU2498   AU        0.185354    0.364391    0.561593     0.007504
AU2499   AU        0.182291    0.400055    0.521837     0.007504
AU2500   AU        0.222427    0.365144    0.523306     0.007504
AU2501   AU        0.224024    0.400031    0.567459     0.007504
AU2502   AU        0.264220    0.365844    0.566131     0.007504
AU2503   AU        0.264686    0.400427    0.523475     0.007504
AU2504   AU        0.303909    0.362612    0.526889     0.007504
AU2505   AU        0.302651    0.402962    0.562130     0.007504
AU2506   AU        0.340902    0.362631    0.565157     0.007504
AU2507   AU        0.342173    0.398339    0.523193     0.007504
AU2508   AU        0.378852    0.364200    0.526621     0.007504
AU2509   AU        0.377747    0.397378    0.563934     0.007504
AU2510   AU        0.418296    0.361775    0.564481     0.007504
AU2511   AU        0.416745    0.399712    0.526651     0.007504
AU2512   AU        0.455394    0.363347    0.522906     0.007504
AU2513   AU        0.455758    0.398101    0.561780     0.007504
AU2514   AU        0.498080    0.364110    0.563286     0.007504
AU2515   AU        0.494252    0.397903    0.523947     0.007504
AU2516   AU        0.534536    0.363158    0.523844     0.007504
AU2517   AU        0.533418    0.401912    0.563081     0.007504
AU2518   AU        0.573365    0.365196    0.563618     0.007504
AU2519   AU        0.572144    0.400733    0.521880     0.007504
AU2520   AU        0.609560    0.363917    0.525459     0.007504
AU2521   AU        0.612331    0.401384    0.562133     0.007504
AU2522   AU        0.649970    0.364384    0.562507     0.007504
AU2523   AU        0.647272    0.400336    0.526123     0.007504
AU2524   AU        0.690770    0.364399    0.523757     0.007504
AU2525   AU        0.688473    0.399615    0.561876     0.007504
AU2526   AU        0.731549    0.366137    0.562342     0.007504
AU2527   AU        0.726605    0.403464    0.523203     0.007504
AU2528   AU        0.764038    0.367234    0.521374     0.007504
AU2529   AU        0.762896    0.403867    0.561979     0.007504
AU2530   AU        0.788066    0.367088    0.564112     0.007504
AU2531   AU        0.801064    0.402530    0.524099     0.007504
NI2532   NI        0.825040    0.364733    0.531600     0.004307
NI2533   NI        0.824424    0.397910    0.569199     0.004307
NI2534   NI        0.855150    0.362991    0.567946     0.004307
NI2535   NI        0.849241    0.402218    0.528334     0.004307
NI2536   NI        0.026397    0.431902    0.540469     0.004307
NI2537   NI        0.060203    0.433844    0.573476     0.004307
NI2538   NI        0.052044    0.472462    0.526724     0.004307
NI2539   NI        0.082657    0.436937    0.530155     0.004307
NI2540   NI        0.087153    0.467982    0.567758     0.004307
AU2541   AU        0.122167    0.436435    0.565584     0.007504
AU2542   AU        0.110650    0.473667    0.523471     0.007504
AU2543   AU        0.147439    0.437812    0.521986     0.007504
AU2544   AU        0.152491    0.472220    0.560806     0.007504
AU2545   AU        0.185546    0.435552    0.561045     0.007504
AU2546   AU        0.186518    0.471095    0.523135     0.007504
AU2547   AU        0.224084    0.434915    0.525320     0.007504
AU2548   AU        0.225711    0.472459    0.564355     0.007504
AU2549   AU        0.262770    0.435400    0.561832     0.007504
AU2550   AU        0.264160    0.469877    0.523588     0.007504
AU2551   AU        0.302313    0.436879    0.523578     0.007504
AU2552   AU        0.303919    0.471872    0.561424     0.007504
AU2553   AU        0.342887    0.435578    0.561634     0.007504
AU2554   AU        0.339650    0.472787    0.522158     0.007504
AU2555   AU        0.378588    0.436045    0.525277     0.007504
AU2556   AU        0.378319    0.472204    0.561391     0.007504
AU2557   AU        0.417468    0.434097    0.564297     0.007504
AU2558   AU        0.420049    0.470848    0.525328     0.007504
AU2559   AU        0.454431    0.434756    0.522179     0.007504
AU2560   AU        0.455841    0.471444    0.559843     0.007504
AU2561   AU        0.496645    0.437217    0.564026     0.007504
AU2562   AU        0.494122    0.471651    0.522006     0.007504
AU2563   AU        0.531894    0.436065    0.523064     0.007504
AU2564   AU        0.534496    0.471687    0.561607     0.007504
AU2565   AU        0.571305    0.435828    0.561888     0.007504
AU2566   AU        0.571862    0.472158    0.524343     0.007504
AU2567   AU        0.610474    0.434777    0.525019     0.007504
AU2568   AU        0.609935    0.473406    0.564190     0.007504
AU2569   AU        0.650980    0.437733    0.565367     0.007504
AU2570   AU        0.647592    0.474114    0.523171     0.007504
AU2571   AU        0.690915    0.438409    0.527080     0.007504
AU2572   AU        0.690944    0.474258    0.564483     0.007504
AU2573   AU        0.727225    0.434894    0.562628     0.007504
AU2574   AU        0.727056    0.473651    0.524699     0.007504
AU2575   AU        0.768509    0.437792    0.524170     0.007504
AU2576   AU        0.765179    0.472819    0.562402     0.007504
AU2577   AU        0.803427    0.439513    0.562809     0.007504
AU2578   AU        0.802123    0.476418    0.526187     0.007504
NI2579   NI        0.832816    0.445065    0.522757     0.004307
NI2580   NI        0.836005    0.476615    0.572168     0.004307
NI2581   NI        0.855670    0.433570    0.568580     0.004307
NI2582   NI        0.874574    0.464208    0.540721     0.004307
NI2583   NI        0.896366    0.414833    0.506287     0.004307
NI2584   NI        0.048849    0.503117    0.569062     0.004307
NI2585   NI        0.055949    0.546648    0.530475     0.004307
NI2586   NI        0.082108    0.510238    0.526687     0.004307
NI2587   NI        0.085465    0.536573    0.567072     0.004307
AU2588   AU        0.117655    0.506429    0.557944     0.007504
AU2589   AU        0.113757    0.544031    0.524592     0.007504
AU2590   AU        0.147712    0.506902    0.521290     0.007504
AU2591   AU        0.150039    0.544049    0.559563     0.007504
AU2592   AU        0.185676    0.506651    0.559744     0.007504
AU2593   AU        0.186312    0.543175    0.520276     0.007504
AU2594   AU        0.225925    0.506188    0.521501     0.007504
AU2595   AU        0.224045    0.544642    0.560944     0.007504
AU2596   AU        0.264475    0.509534    0.563856     0.007504
AU2597   AU        0.263191    0.543687    0.523553     0.007504
AU2598   AU        0.302522    0.508014    0.521721     0.007504
AU2599   AU        0.302630    0.544895    0.561855     0.007504
AU2600   AU        0.339442    0.506519    0.564961     0.007504
AU2601   AU        0.339632    0.544676    0.525036     0.007504
AU2602   AU        0.381066    0.506975    0.521055     0.007504
AU2603   AU        0.377790    0.542780    0.563065     0.007504
AU2604   AU        0.417306    0.508367    0.561738     0.007504
AU2605   AU        0.416312    0.545345    0.524587     0.007504
AU2606   AU        0.455713    0.505931    0.523332     0.007504
AU2607   AU        0.454822    0.542126    0.561566     0.007504
AU2608   AU        0.495347    0.506819    0.562989     0.007504
AU2609   AU        0.492350    0.542330    0.524491     0.007504
AU2610   AU        0.530806    0.507139    0.520520     0.007504
AU2611   AU        0.531320    0.541639    0.560659     0.007504
AU2612   AU        0.571810    0.507625    0.562718     0.007504
AU2613   AU        0.570744    0.544288    0.520989     0.007504
AU2614   AU        0.610237    0.508388    0.520121     0.007504
AU2615   AU        0.609699    0.544974    0.560330     0.007504
AU2616   AU        0.649161    0.507488    0.560381     0.007504
AU2617   AU        0.649918    0.544301    0.522489     0.007504
AU2618   AU        0.687177    0.507137    0.524482     0.007504
AU2619   AU        0.687247    0.543970    0.562840     0.007504
AU2620   AU        0.727781    0.507798    0.562966     0.007504
AU2621   AU        0.725882    0.543917    0.523048     0.007504
AU2622   AU        0.764590    0.507262    0.523798     0.007504
AU2623   AU        0.762687    0.543936    0.561847     0.007504
AU2624   AU        0.800648    0.508394    0.563528     0.007504
AU2625   AU        0.794099    0.545057    0.525630     0.007504
NI2626   NI        0.833341    0.510860    0.523147     0.004307
NI2627   NI        0.825713    0.548308    0.566038     0.004307
NI2628   NI        0.855815    0.515343    0.565753     0.004307
NI2629   NI        0.853445    0.549270    0.528131     0.004307
NI2630   NI        0.043505    0.585048    0.571397     0.004307
NI2631   NI        0.046116    0.599990    0.523876     0.004307
NI2632   NI        0.088949    0.580763    0.518846     0.004307
NI2633   NI        0.084026    0.610189    0.560771     0.004307
NI2634   NI        0.113775    0.576066    0.557579     0.004307
NI2635   NI        0.121170    0.614279    0.519433     0.004307
AU2636   AU        0.149077    0.580114    0.523096     0.007504
AU2637   AU        0.152677    0.614489    0.562289     0.007504
AU2638   AU        0.185496    0.579068    0.561203     0.007504
AU2639   AU        0.187244    0.614164    0.521940     0.007504
AU2640   AU        0.222871    0.579397    0.523828     0.007504
AU2641   AU        0.225252    0.614347    0.563078     0.007504
AU2642   AU        0.264254    0.581457    0.561916     0.007504
AU2643   AU        0.264543    0.617276    0.522347     0.007504
AU2644   AU        0.303707    0.583258    0.523197     0.007504
AU2645   AU        0.301106    0.618095    0.563398     0.007504
AU2646   AU        0.340430    0.581365    0.562334     0.007504
AU2647   AU        0.341854    0.618289    0.525167     0.007504
AU2648   AU        0.378510    0.580930    0.525611     0.007504
AU2649   AU        0.378358    0.616233    0.561622     0.007504
AU2650   AU        0.416789    0.578615    0.563790     0.007504
AU2651   AU        0.416938    0.616166    0.523925     0.007504
AU2652   AU        0.454054    0.576602    0.525166     0.007504
AU2653   AU        0.453462    0.615087    0.562472     0.007504
AU2654   AU        0.494585    0.578679    0.559932     0.007504
AU2655   AU        0.491878    0.614371    0.522915     0.007504
AU2656   AU        0.531439    0.578015    0.521504     0.007504
AU2657   AU        0.531605    0.615652    0.563066     0.007504
AU2658   AU        0.568620    0.578225    0.557303     0.007504
AU2659   AU        0.570964    0.614223    0.521757     0.007504
AU2660   AU        0.610884    0.578054    0.520928     0.007504
AU2661   AU        0.608181    0.614330    0.559894     0.007504
AU2662   AU        0.649136    0.579311    0.559964     0.007504
AU2663   AU        0.649238    0.617335    0.521133     0.007504
AU2664   AU        0.687552    0.581785    0.521957     0.007504
AU2665   AU        0.687651    0.615599    0.559321     0.007504
AU2666   AU        0.726350    0.580158    0.561523     0.007504
AU2667   AU        0.724724    0.617038    0.522410     0.007504
AU2668   AU        0.760257    0.581210    0.526347     0.007504
NI2669   NI        0.762561    0.618020    0.563486     0.004307
NI2670   NI        0.792367    0.580531    0.569166     0.004307
NI2671   NI        0.790187    0.617415    0.526872     0.004307
NI2672   NI        0.819659    0.585219    0.527139     0.004307
NI2673   NI        0.832549    0.615661    0.567223     0.004307
NI2674   NI        0.861855    0.576992    0.569657     0.004307
NI2675   NI        0.848895    0.646993    0.519676     0.004307
NI2676   NI        0.081972    0.645110    0.527853     0.004307
NI2677   NI        0.120394    0.645805    0.561063     0.004307
NI2678   NI        0.123199    0.682696    0.519473     0.004307
NI2679   NI        0.153322    0.647201    0.521288     0.004307
NI2680   NI        0.155651    0.680321    0.552437     0.004307
AU2681   AU        0.188109    0.648175    0.558095     0.007504
NI2682   NI        0.187693    0.685364    0.519678     0.004307
AU2683   AU        0.223611    0.651789    0.521546     0.007504
AU2684   AU        0.224411    0.686799    0.561267     0.007504
AU2685   AU        0.262374    0.650192    0.560849     0.007504
AU2686   AU        0.266053    0.687760    0.525488     0.007504
AU2687   AU        0.301815    0.652414    0.523533     0.007504
AU2688   AU        0.303699    0.687061    0.560783     0.007504
AU2689   AU        0.342945    0.654545    0.564580     0.007504
AU2690   AU        0.342155    0.688542    0.522997     0.007504
AU2691   AU        0.380597    0.653758    0.523092     0.007504
AU2692   AU        0.378446    0.691035    0.562800     0.007504
AU2693   AU        0.418992    0.654142    0.563870     0.007504
AU2694   AU        0.416565    0.690805    0.522635     0.007504
AU2695   AU        0.452924    0.652337    0.521006     0.007504
AU2696   AU        0.457622    0.690168    0.561061     0.007504
AU2697   AU        0.492817    0.651318    0.560083     0.007504
AU2698   AU        0.494778    0.688271    0.522909     0.007504
AU2699   AU        0.534565    0.650906    0.522668     0.007504
AU2700   AU        0.531880    0.687059    0.561750     0.007504
AU2701   AU        0.572460    0.649881    0.562263     0.007504
AU2702   AU        0.569290    0.685525    0.525289     0.007504
AU2703   AU        0.608774    0.652274    0.524802     0.007504
AU2704   AU        0.612481    0.687524    0.558724     0.007504
AU2705   AU        0.649533    0.652587    0.560738     0.007504
AU2706   AU        0.651172    0.688177    0.521423     0.007504
AU2707   AU        0.689726    0.651608    0.522602     0.007504
AU2708   AU        0.688367    0.683976    0.562170     0.007504
AU2709   AU        0.723872    0.649847    0.561876     0.007504
NI2710   NI        0.725231    0.682983    0.523962     0.004307
NI2711   NI        0.758418    0.649482    0.523787     0.004307
NI2712   NI        0.753153    0.683181    0.560681     0.004307
NI2713   NI        0.849362    0.658327    0.566924     0.004307
NI2714   NI        0.790344    0.683542    0.531732     0.004307
NI2715   NI        0.799713    0.650379    0.570657     0.004307
NI2716   NI        0.158149    0.718163    0.515510     0.004307
NI2717   NI        0.184031    0.715180    0.551969     0.004307
NI2718   NI        0.185569    0.757379    0.525326     0.004307
NI2719   NI        0.223798    0.722407    0.520309     0.004307
NI2720   NI        0.219811    0.750570    0.557862     0.004307
NI2721   NI        0.258217    0.720552    0.560673     0.004307
NI2722   NI        0.268553    0.753768    0.518133     0.004307
AU2723   AU        0.303103    0.722972    0.521445     0.007504
NI2724   NI        0.305704    0.754551    0.554171     0.004307
AU2725   AU        0.340710    0.724792    0.560594     0.007504
AU2726   AU        0.340229    0.760540    0.522189     0.007504
AU2727   AU        0.378152    0.726964    0.524656     0.007504
AU2728   AU        0.377900    0.760178    0.556850     0.007504
AU2729   AU        0.417094    0.727520    0.560632     0.007504
AU2730   AU        0.416464    0.760717    0.522567     0.007504
AU2731   AU        0.452488    0.722514    0.518941     0.007504
NI2732   NI        0.457943    0.744097    0.558980     0.004307
AU2733   AU        0.498904    0.723305    0.563446     0.007504
AU2734   AU        0.491634    0.749203    0.520316     0.007504
AU2735   AU        0.531782    0.722579    0.523156     0.007504
NI2736   NI        0.538170    0.753193    0.568432     0.004307
AU2737   AU        0.571706    0.719216    0.558184     0.007504
NI2738   NI        0.574368    0.752220    0.516706     0.004307
AU2739   AU        0.607644    0.721727    0.520766     0.007504
NI2740   NI        0.615267    0.733792    0.567301     0.004307
NI2741   NI        0.656682    0.715574    0.564151     0.004307
NI2742   NI        0.651901    0.739055    0.524744     0.004307
NI2743   NI        0.692285    0.717076    0.519866     0.004307
NI2744   NI        0.693099    0.753308    0.544116     0.004307
NI2745   NI        0.722159    0.718972    0.559664     0.004307
NI2746   NI        0.729079    0.743363    0.515975     0.004307
NI2747   NI        0.759621    0.716566    0.534198     0.004307
NI2748   NI        0.233415    0.786364    0.527629     0.004307
NI2749   NI        0.233291    0.801003    0.590326     0.004307
NI2750   NI        0.265395    0.775212    0.561274     0.004307
NI2751   NI        0.297727    0.793257    0.521929     0.004307
NI2752   NI        0.260749    0.797411    0.631293     0.004307
NI2753   NI        0.335163    0.793595    0.556344     0.004307
NI2754   NI        0.330653    0.829206    0.521155     0.004307
NI2755   NI        0.373654    0.797339    0.523287     0.004307
NI2756   NI        0.377646    0.809914    0.570613     0.004307
NI2757   NI        0.420294    0.779990    0.566124     0.004307
NI2758   NI        0.420635    0.808597    0.525576     0.004307
NI2759   NI        0.457373    0.780446    0.528564     0.004307
NI2760   NI        0.461422    0.827325    0.539723     0.004307
NI2761   NI        0.497266    0.772593    0.562155     0.004307
NI2762   NI        0.500941    0.801610    0.528748     0.004307
NI2763   NI        0.532698    0.769430    0.524463     0.004307
NI2764   NI        0.539321    0.806043    0.553914     0.004307
NI2765   NI        0.581239    0.767193    0.559354     0.004307
NI2766   NI        0.549180    0.851157    0.506744     0.004307
NI2767   NI        0.616508    0.771900    0.522999     0.004307
NI2768   NI        0.581268    0.798925    0.526216     0.004307
NI2769   NI        0.623379    0.800167    0.562760     0.004307
NI2770   NI        0.625362    0.812261    0.506501     0.004307
NI2771   NI        0.665038    0.784623    0.521273     0.004307
NI2772   NI        0.405963    0.841640    0.549693     0.004307
NI2773   NI        0.332822    0.044238    0.582072     0.004307
NI2774   NI        0.342782    0.080916    0.603714     0.004307
NI2775   NI        0.428035    0.045750    0.612280     0.004307
NI2776   NI        0.473904    0.054691    0.638055     0.004307
NI2777   NI        0.492573    0.066643    0.597615     0.004307
NI2778   NI        0.528182    0.059501    0.624616     0.004307
NI2779   NI        0.610672    0.089953    0.669756     0.004307
NI2780   NI        0.223323    0.083396    0.603420     0.004307
NI2781   NI        0.179454    0.098176    0.619020     0.004307
NI2782   NI        0.308554    0.053385    0.622387     0.004307
NI2783   NI        0.258728    0.116252    0.600928     0.004307
NI2784   NI        0.295708    0.093614    0.596805     0.004307
NI2785   NI        0.300517    0.109867    0.699561     0.004307
NI2786   NI        0.307504    0.112978    0.650834     0.004307
NI2787   NI        0.340638    0.124553    0.605818     0.004307
NI2788   NI        0.385126    0.096210    0.600855     0.004307
NI2789   NI        0.378239    0.114303    0.644326     0.004307
NI2790   NI        0.412095    0.079442    0.640337     0.004307
NI2791   NI        0.424039    0.120649    0.595245     0.004307
NI2792   NI        0.458532    0.094085    0.609256     0.004307
NI2793   NI        0.459907    0.124969    0.645549     0.004307
NI2794   NI        0.494315    0.091849    0.643071     0.004307
NI2795   NI        0.492911    0.118871    0.603995     0.004307
NI2796   NI        0.538864    0.099380    0.606277     0.004307
NI2797   NI        0.530994    0.124365    0.644010     0.004307
NI2798   NI        0.572630    0.094641    0.640418     0.004307
NI2799   NI        0.575140    0.125992    0.607617     0.004307
NI2800   NI        0.610637    0.092504    0.602679     0.004307
NI2801   NI        0.611308    0.129345    0.638120     0.004307
NI2802   NI        0.655721    0.095564    0.640854     0.004307
NI2803   NI        0.651579    0.130284    0.602072     0.004307
NI2804   NI        0.692492    0.122723    0.628256     0.004307
NI2805   NI        0.703209    0.101671    0.588971     0.004307
NI2806   NI        0.073826    0.172434    0.529095     0.004307
NI2807   NI        0.164843    0.183037    0.650195     0.004307
NI2808   NI        0.199366    0.151605    0.647939     0.004307
NI2809   NI        0.235208    0.145585    0.680601     0.004307
NI2810   NI        0.187131    0.181592    0.607019     0.004307
NI2811   NI        0.223851    0.151227    0.599157     0.004307
NI2812   NI        0.230190    0.185911    0.638831     0.004307
NI2813   NI        0.268762    0.156910    0.640779     0.004307
AU2814   AU        0.261372    0.185342    0.601792     0.007504
NI2815   NI        0.299209    0.152501    0.607719     0.004307
AU2816   AU        0.304334    0.185738    0.640575     0.007504
AU2817   AU        0.342041    0.151462    0.643506     0.007504
AU2818   AU        0.343664    0.183655    0.603986     0.007504
AU2819   AU        0.382364    0.149930    0.606280     0.007504
AU2820   AU        0.382076    0.186775    0.644001     0.007504
AU2821   AU        0.419795    0.152625    0.642740     0.007504
AU2822   AU        0.419357    0.184022    0.603099     0.007504
AU2823   AU        0.457568    0.150112    0.603785     0.007504
AU2824   AU        0.455272    0.186501    0.641074     0.007504
NI2825   NI        0.495045    0.154612    0.642669     0.004307
AU2826   AU        0.494260    0.183461    0.601306     0.007504
AU2827   AU        0.531235    0.149951    0.602878     0.007504
AU2828   AU        0.532897    0.187491    0.642699     0.007504
NI2829   NI        0.572082    0.159793    0.640128     0.004307
AU2830   AU        0.569138    0.184089    0.599173     0.007504
NI2831   NI        0.608197    0.157195    0.599554     0.004307
AU2832   AU        0.610034    0.187199    0.639778     0.007504
NI2833   NI        0.653638    0.149029    0.642738     0.004307
AU2834   AU        0.650680    0.185671    0.602878     0.007504
NI2835   NI        0.693694    0.160727    0.603677     0.004307
NI2836   NI        0.693464    0.191673    0.640323     0.004307
NI2837   NI        0.733243    0.154893    0.628495     0.004307
NI2838   NI        0.728465    0.189754    0.595201     0.004307
NI2839   NI        0.762891    0.156845    0.589815     0.004307
NI2840   NI        0.769806    0.184013    0.628395     0.004307
NI2841   NI        0.833309    0.234981    0.598964     0.004307
NI2842   NI        0.084428    0.292979    0.674802     0.004307
NI2843   NI        0.132513    0.220100    0.654258     0.004307
NI2844   NI        0.128445    0.254847    0.607394     0.004307
NI2845   NI        0.146530    0.214902    0.604721     0.004307
NI2846   NI        0.159203    0.260096    0.641173     0.004307
NI2847   NI        0.184371    0.221866    0.639624     0.004307
AU2848   AU        0.187420    0.257683    0.603787     0.007504
AU2849   AU        0.224604    0.219986    0.604378     0.007504
AU2850   AU        0.225571    0.256497    0.643729     0.007504
AU2851   AU        0.265551    0.220883    0.641826     0.007504
AU2852   AU        0.264198    0.256695    0.603317     0.007504
AU2853   AU        0.302002    0.217441    0.603662     0.007504
AU2854   AU        0.300515    0.255220    0.644008     0.007504
AU2855   AU        0.341811    0.221282    0.642635     0.007504
AU2856   AU        0.340572    0.256645    0.606415     0.007504
AU2857   AU        0.380035    0.220832    0.605109     0.007504
AU2858   AU        0.378326    0.257170    0.642658     0.007504
AU2859   AU        0.418569    0.223443    0.642380     0.007504
AU2860   AU        0.417999    0.255475    0.601512     0.007504
AU2861   AU        0.456885    0.221684    0.602394     0.007504
AU2862   AU        0.457299    0.259282    0.641172     0.007504
AU2863   AU        0.493122    0.220783    0.642211     0.007504
AU2864   AU        0.496119    0.255541    0.603619     0.007504
AU2865   AU        0.533909    0.219720    0.601381     0.007504
AU2866   AU        0.532546    0.256076    0.641115     0.007504
AU2867   AU        0.571891    0.220902    0.640888     0.007504
AU2868   AU        0.573445    0.257091    0.604440     0.007504
AU2869   AU        0.610933    0.221506    0.603126     0.007504
AU2870   AU        0.610255    0.255804    0.642062     0.007504
AU2871   AU        0.649127    0.220090    0.641646     0.007504
AU2872   AU        0.647292    0.256783    0.603981     0.007504
AU2873   AU        0.687126    0.222940    0.602782     0.007504
AU2874   AU        0.686913    0.260345    0.638559     0.007504
NI2875   NI        0.723787    0.232618    0.638672     0.004307
AU2876   AU        0.722714    0.256410    0.597818     0.007504
NI2877   NI        0.759220    0.223179    0.598597     0.004307
NI2878   NI        0.755479    0.265304    0.637991     0.004307
NI2879   NI        0.788914    0.228194    0.636114     0.004307
NI2880   NI        0.790042    0.254156    0.597981     0.004307
NI2881   NI        0.829187    0.263776    0.635289     0.004307
NI2882   NI        0.047148    0.334810    0.604940     0.004307
NI2883   NI        0.088892    0.287474    0.602642     0.004307
NI2884   NI        0.083466    0.325482    0.637495     0.004307
NI2885   NI        0.122844    0.294007    0.640208     0.004307
NI2886   NI        0.120981    0.327198    0.600247     0.004307
AU2887   AU        0.152147    0.292878    0.603437     0.007504
AU2888   AU        0.152405    0.329715    0.639438     0.007504
AU2889   AU        0.189268    0.293171    0.640449     0.007504
AU2890   AU        0.187856    0.331434    0.601641     0.007504
AU2891   AU        0.224102    0.292011    0.601673     0.007504
AU2892   AU        0.225829    0.328712    0.641296     0.007504
AU2893   AU        0.263434    0.294656    0.640478     0.007504
AU2894   AU        0.263045    0.328899    0.603845     0.007504
AU2895   AU        0.302147    0.292986    0.602011     0.007504
AU2896   AU        0.300467    0.328128    0.642883     0.007504
AU2897   AU        0.340712    0.292759    0.642119     0.007504
AU2898   AU        0.341802    0.326802    0.603454     0.007504
AU2899   AU        0.379242    0.293232    0.599557     0.007504
AU2900   AU        0.380426    0.327559    0.643469     0.007504
AU2901   AU        0.417145    0.295126    0.640025     0.007504
AU2902   AU        0.419171    0.326762    0.600243     0.007504
AU2903   AU        0.457804    0.291192    0.600619     0.007504
AU2904   AU        0.457344    0.325620    0.639049     0.007504
AU2905   AU        0.497185    0.293187    0.640067     0.007504
AU2906   AU        0.495101    0.328096    0.601297     0.007504
AU2907   AU        0.531652    0.291003    0.600821     0.007504
AU2908   AU        0.534644    0.329336    0.639646     0.007504
AU2909   AU        0.570739    0.290879    0.643356     0.007504
AU2910   AU        0.573386    0.329045    0.601430     0.007504
AU2911   AU        0.611458    0.293436    0.600215     0.007504
AU2912   AU        0.607920    0.326770    0.641029     0.007504
AU2913   AU        0.648263    0.293138    0.639691     0.007504
AU2914   AU        0.647838    0.329621    0.601491     0.007504
AU2915   AU        0.688351    0.292665    0.598696     0.007504
AU2916   AU        0.685592    0.328308    0.637674     0.007504
AU2917   AU        0.719730    0.294571    0.638003     0.007504
AU2918   AU        0.725532    0.329410    0.599883     0.007504
NI2919   NI        0.759961    0.293124    0.603331     0.004307
NI2920   NI        0.751909    0.333382    0.639240     0.004307
NI2921   NI        0.792949    0.296645    0.638598     0.004307
NI2922   NI        0.785896    0.328490    0.606598     0.004307
NI2923   NI        0.833078    0.301306    0.668546     0.004307
NI2924   NI        0.824710    0.335953    0.638844     0.004307
NI2925   NI        0.854780    0.324166    0.596601     0.004307
NI2926   NI        0.025104    0.367029    0.641490     0.004307
NI2927   NI        0.049509    0.397717    0.605273     0.004307
NI2928   NI        0.087416    0.361617    0.607406     0.004307
NI2929   NI        0.079059    0.403593    0.637465     0.004307
NI2930   NI        0.116871    0.366553    0.641744     0.004307
NI2931   NI        0.122888    0.396918    0.603507     0.004307
AU2932   AU        0.150575    0.361505    0.600744     0.007504
AU2933   AU        0.151872    0.398629    0.642712     0.007504
AU2934   AU        0.186930    0.362244    0.642036     0.007504
AU2935   AU        0.183361    0.399684    0.603569     0.007504
AU2936   AU        0.224792    0.366245    0.604579     0.007504
AU2937   AU        0.225634    0.401184    0.644669     0.007504
AU2938   AU        0.263534    0.363444    0.642705     0.007504
AU2939   AU        0.262145    0.400405    0.604911     0.007504
AU2940   AU        0.303000    0.364991    0.604193     0.007504
AU2941   AU        0.301772    0.401851    0.642347     0.007504
AU2942   AU        0.341090    0.363008    0.643177     0.007504
AU2943   AU        0.341671    0.398848    0.602871     0.007504
AU2944   AU        0.380317    0.362556    0.603012     0.007504
AU2945   AU        0.379125    0.398267    0.638869     0.007504
AU2946   AU        0.418532    0.363133    0.638462     0.007504
AU2947   AU        0.416289    0.399070    0.598739     0.007504
AU2948   AU        0.456485    0.363010    0.599083     0.007504
AU2949   AU        0.456213    0.399392    0.638345     0.007504
AU2950   AU        0.498013    0.364972    0.637699     0.007504
AU2951   AU        0.495529    0.399379    0.600859     0.007504
AU2952   AU        0.534956    0.362825    0.600108     0.007504
AU2953   AU        0.533544    0.400427    0.638873     0.007504
AU2954   AU        0.570944    0.366143    0.638911     0.007504
AU2955   AU        0.568814    0.401284    0.600902     0.007504
AU2956   AU        0.610377    0.363955    0.600576     0.007504
AU2957   AU        0.608325    0.400151    0.638646     0.007504
AU2958   AU        0.647531    0.363550    0.640906     0.007504
AU2959   AU        0.649255    0.401063    0.599449     0.007504
AU2960   AU        0.688135    0.363971    0.600826     0.007504
AU2961   AU        0.685122    0.400524    0.638709     0.007504
AU2962   AU        0.721890    0.365627    0.637675     0.007504
AU2963   AU        0.728112    0.399884    0.601814     0.007504
AU2964   AU        0.762484    0.365863    0.603335     0.007504
AU2965   AU        0.759322    0.401017    0.640703     0.007504
NI2966   NI        0.791233    0.366968    0.641547     0.004307
AU2967   AU        0.789799    0.404460    0.601407     0.007504
NI2968   NI        0.820514    0.361744    0.600373     0.004307
NI2969   NI        0.826408    0.397046    0.632501     0.004307
NI2970   NI        0.823160    0.392632    0.717281     0.004307
NI2971   NI        0.863563    0.395619    0.603363     0.004307
NI2972   NI        0.015788    0.387401    0.564167     0.004307
NI2973   NI        0.042278    0.468156    0.599627     0.004307
NI2974   NI        0.094102    0.436876    0.609873     0.004307
NI2975   NI        0.093616    0.472138    0.641135     0.004307
NI2976   NI        0.127237    0.435391    0.641477     0.004307
AU2977   AU        0.124883    0.470145    0.601715     0.007504
AU2978   AU        0.150647    0.433793    0.604160     0.007504
AU2979   AU        0.150623    0.474850    0.639288     0.007504
AU2980   AU        0.186457    0.435864    0.643147     0.007504
AU2981   AU        0.186412    0.471253    0.602567     0.007504
AU2982   AU        0.224940    0.436229    0.600886     0.007504
AU2983   AU        0.226518    0.472666    0.639911     0.007504
AU2984   AU        0.262888    0.435990    0.639774     0.007504
AU2985   AU        0.263775    0.473459    0.601222     0.007504
AU2986   AU        0.300089    0.437843    0.602177     0.007504
AU2987   AU        0.300207    0.471749    0.641212     0.007504
AU2988   AU        0.342014    0.434098    0.640618     0.007504
AU2989   AU        0.340357    0.469924    0.601457     0.007504
AU2990   AU        0.379231    0.434121    0.601476     0.007504
AU2991   AU        0.377795    0.469745    0.638076     0.007504
AU2992   AU        0.417769    0.435534    0.637058     0.007504
AU2993   AU        0.417289    0.471601    0.597648     0.007504
AU2994   AU        0.457891    0.436284    0.600568     0.007504
AU2995   AU        0.455137    0.472332    0.638156     0.007504
AU2996   AU        0.494251    0.439284    0.640199     0.007504
AU2997   AU        0.495980    0.474002    0.601869     0.007504
AU2998   AU        0.532550    0.437913    0.600461     0.007504
AU2999   AU        0.532638    0.475944    0.639478     0.007504
AU3000   AU        0.571078    0.438762    0.641906     0.007504
AU3001   AU        0.569950    0.472577    0.602098     0.007504
AU3002   AU        0.609654    0.436332    0.601752     0.007504
AU3003   AU        0.612986    0.472606    0.638356     0.007504
AU3004   AU        0.649813    0.433400    0.637836     0.007504
AU3005   AU        0.649443    0.473422    0.599768     0.007504
AU3006   AU        0.689838    0.435250    0.600992     0.007504
AU3007   AU        0.687501    0.471186    0.639488     0.007504
AU3008   AU        0.724215    0.435666    0.638120     0.007504
AU3009   AU        0.725769    0.474145    0.603235     0.007504
AU3010   AU        0.759932    0.438012    0.599293     0.007504
AU3011   AU        0.762122    0.472325    0.639134     0.007504
NI3012   NI        0.792187    0.434461    0.634341     0.004307
AU3013   AU        0.798845    0.469528    0.600705     0.007504
NI3014   NI        0.830828    0.433928    0.604644     0.004307
NI3015   NI        0.814741    0.467157    0.646865     0.004307
NI3016   NI        0.852849    0.440276    0.648635     0.004307
NI3017   NI        0.852338    0.477020    0.616916     0.004307
NI3018   NI        0.045779    0.501845    0.649959     0.004307
NI3019   NI        0.051937    0.554036    0.608805     0.004307
NI3020   NI        0.095269    0.505202    0.603862     0.004307
NI3021   NI        0.083257    0.541632    0.646163     0.004307
NI3022   NI        0.119784    0.508894    0.644376     0.004307
NI3023   NI        0.120050    0.545251    0.601206     0.004307
AU3024   AU        0.149415    0.509527    0.603318     0.007504
AU3025   AU        0.153412    0.545328    0.637805     0.007504
AU3026   AU        0.188259    0.510577    0.640047     0.007504
AU3027   AU        0.185825    0.543960    0.600334     0.007504
AU3028   AU        0.223542    0.508957    0.600047     0.007504
AU3029   AU        0.226020    0.545397    0.641295     0.007504
AU3030   AU        0.262302    0.509353    0.638618     0.007504
AU3031   AU        0.265279    0.546575    0.602245     0.007504
AU3032   AU        0.303614    0.507122    0.603460     0.007504
AU3033   AU        0.303131    0.543178    0.640682     0.007504
AU3034   AU        0.339476    0.506338    0.639864     0.007504
AU3035   AU        0.339674    0.545695    0.602276     0.007504
AU3036   AU        0.378089    0.509650    0.601038     0.007504
AU3037   AU        0.378454    0.542731    0.639806     0.007504
AU3038   AU        0.416832    0.507262    0.637917     0.007504
AU3039   AU        0.419332    0.542692    0.600336     0.007504
AU3040   AU        0.455410    0.506255    0.600159     0.007504
AU3041   AU        0.454502    0.542989    0.639683     0.007504
AU3042   AU        0.490698    0.508550    0.640654     0.007504
AU3043   AU        0.494859    0.542093    0.601848     0.007504
AU3044   AU        0.532760    0.510452    0.602658     0.007504
AU3045   AU        0.530417    0.544740    0.641585     0.007504
AU3046   AU        0.572801    0.508012    0.640668     0.007504
AU3047   AU        0.571078    0.544215    0.599561     0.007504
AU3048   AU        0.610912    0.511979    0.600066     0.007504
AU3049   AU        0.611964    0.546250    0.642525     0.007504
AU3050   AU        0.649102    0.508727    0.640740     0.007504
AU3051   AU        0.648526    0.547162    0.602659     0.007504
AU3052   AU        0.687449    0.510027    0.602956     0.007504
AU3053   AU        0.685660    0.544435    0.639639     0.007504
AU3054   AU        0.723452    0.506962    0.639555     0.007504
AU3055   AU        0.727264    0.541930    0.602763     0.007504
AU3056   AU        0.765701    0.506753    0.602691     0.007504
NI3057   NI        0.754808    0.542856    0.640869     0.004307
NI3058   NI        0.794423    0.507593    0.642958     0.004307
NI3059   NI        0.786115    0.547515    0.602729     0.004307
NI3060   NI        0.822023    0.511306    0.609053     0.004307
NI3061   NI        0.815674    0.544831    0.645496     0.004307
NI3062   NI        0.880952    0.545752    0.597987     0.004307
NI3063   NI        0.855633    0.514121    0.642582     0.004307
NI3064   NI        0.090583    0.581478    0.598918     0.004307
NI3065   NI        0.088697    0.611525    0.636620     0.004307
NI3066   NI        0.120252    0.575333    0.642986     0.004307
NI3067   NI        0.120317    0.617318    0.602182     0.004307
AU3068   AU        0.151840    0.579129    0.598933     0.007504
NI3069   NI        0.155087    0.612053    0.634264     0.004307
AU3070   AU        0.190050    0.581515    0.637231     0.007504
AU3071   AU        0.190546    0.616087    0.600099     0.007504
AU3072   AU        0.226230    0.578133    0.598427     0.007504
AU3073   AU        0.226966    0.615119    0.639812     0.007504
AU3074   AU        0.265016    0.582267    0.639147     0.007504
AU3075   AU        0.261692    0.614825    0.599057     0.007504
AU3076   AU        0.300910    0.581250    0.601116     0.007504
AU3077   AU        0.302390    0.617345    0.639634     0.007504
AU3078   AU        0.341865    0.580094    0.641549     0.007504
AU3079   AU        0.341564    0.615539    0.600798     0.007504
AU3080   AU        0.379594    0.579026    0.600737     0.007504
AU3081   AU        0.379845    0.616800    0.637910     0.007504
AU3082   AU        0.417726    0.579387    0.638064     0.007504
AU3083   AU        0.419167    0.614819    0.599539     0.007504
AU3084   AU        0.456694    0.579685    0.601439     0.007504
AU3085   AU        0.454072    0.616621    0.639728     0.007504
AU3086   AU        0.492675    0.578494    0.640340     0.007504
AU3087   AU        0.493013    0.616052    0.598564     0.007504
AU3088   AU        0.532444    0.579353    0.601020     0.007504
AU3089   AU        0.530419    0.614926    0.636852     0.007504
AU3090   AU        0.571426    0.579110    0.638966     0.007504
AU3091   AU        0.568586    0.615985    0.600805     0.007504
AU3092   AU        0.611745    0.579264    0.601972     0.007504
AU3093   AU        0.609275    0.614491    0.639495     0.007504
AU3094   AU        0.647935    0.579370    0.641227     0.007504
AU3095   AU        0.648283    0.613065    0.599429     0.007504
AU3096   AU        0.686846    0.577393    0.601047     0.007504
AU3097   AU        0.684168    0.612657    0.637917     0.007504
AU3098   AU        0.721405    0.578868    0.639124     0.007504
AU3099   AU        0.716305    0.615288    0.598830     0.007504
NI3100   NI        0.754172    0.582151    0.598529     0.004307
NI3101   NI        0.756162    0.611923    0.640042     0.004307
NI3102   NI        0.785919    0.576982    0.634485     0.004307
NI3103   NI        0.799545    0.615681    0.603329     0.004307
NI3104   NI        0.826008    0.574424    0.602605     0.004307
NI3105   NI        0.839112    0.636813    0.609147     0.004307
NI3106   NI        0.126403    0.648161    0.633152     0.004307
NI3107   NI        0.084889    0.655495    0.608228     0.004307
NI3108   NI        0.154714    0.648734    0.591884     0.004307
NI3109   NI        0.146383    0.713743    0.588787     0.004307
NI3110   NI        0.184030    0.647637    0.634488     0.004307
NI3111   NI        0.188264    0.681840    0.593253     0.004307
AU3112   AU        0.221685    0.649679    0.599419     0.007504
NI3113   NI        0.228440    0.689022    0.644243     0.004307
AU3114   AU        0.263626    0.651360    0.637286     0.007504
AU3115   AU        0.265752    0.684356    0.597747     0.007504
AU3116   AU        0.301044    0.653893    0.599114     0.007504
AU3117   AU        0.301888    0.685836    0.637581     0.007504
AU3118   AU        0.340864    0.654094    0.637029     0.007504
AU3119   AU        0.340731    0.690838    0.601192     0.007504
AU3120   AU        0.379553    0.655365    0.599900     0.007504
AU3121   AU        0.380625    0.687836    0.636163     0.007504
AU3122   AU        0.418300    0.650179    0.636802     0.007504
AU3123   AU        0.418724    0.690337    0.599975     0.007504
AU3124   AU        0.453081    0.651084    0.602321     0.007504
AU3125   AU        0.456530    0.687265    0.637528     0.007504
AU3126   AU        0.493703    0.650867    0.638370     0.007504
AU3127   AU        0.491804    0.687911    0.599806     0.007504
AU3128   AU        0.532756    0.652963    0.601306     0.007504
AU3129   AU        0.529279    0.685571    0.637419     0.007504
AU3130   AU        0.569754    0.649849    0.638939     0.007504
AU3131   AU        0.569312    0.684662    0.600162     0.007504
AU3132   AU        0.609768    0.650905    0.598337     0.007504
AU3133   AU        0.608435    0.682371    0.638693     0.007504
AU3134   AU        0.646869    0.647709    0.637563     0.007504
AU3135   AU        0.650811    0.684972    0.599610     0.007504
AU3136   AU        0.684666    0.650922    0.599215     0.007504
NI3137   NI        0.689411    0.682398    0.637938     0.004307
NI3138   NI        0.721862    0.644242    0.634419     0.004307
NI3139   NI        0.723437    0.688226    0.596534     0.004307
NI3140   NI        0.753245    0.644791    0.597703     0.004307
NI3141   NI        0.755090    0.678821    0.629899     0.004307
NI3142   NI        0.801303    0.655701    0.619370     0.004307
NI3143   NI        0.800026    0.710338    0.633556     0.004307
NI3144   NI        0.121431    0.679389    0.591320     0.004307
NI3145   NI        0.239192    0.722141    0.673140     0.004307
NI3146   NI        0.181639    0.743194    0.600204     0.004307
NI3147   NI        0.230067    0.713369    0.602891     0.004307
NI3148   NI        0.215105    0.743615    0.635226     0.004307
NI3149   NI        0.264712    0.713488    0.632289     0.004307
NI3150   NI        0.260895    0.747648    0.596897     0.004307
NI3151   NI        0.305978    0.724525    0.598913     0.004307
NI3152   NI        0.301015    0.756843    0.636225     0.004307
NI3153   NI        0.337410    0.724791    0.636411     0.004307
NI3154   NI        0.343672    0.764022    0.591046     0.004307
AU3155   AU        0.379900    0.724843    0.597931     0.007504
NI3156   NI        0.380816    0.747541    0.642143     0.004307
AU3157   AU        0.418461    0.721441    0.638438     0.007504
NI3158   NI        0.417580    0.750660    0.604853     0.004307
AU3159   AU        0.455160    0.722164    0.600628     0.007504
NI3160   NI        0.455728    0.750103    0.643726     0.004307
AU3161   AU        0.492950    0.720286    0.638726     0.007504
NI3162   NI        0.493041    0.750936    0.603580     0.004307
AU3163   AU        0.532559    0.720776    0.599401     0.007504
NI3164   NI        0.530342    0.745919    0.638484     0.004307
NI3165   NI        0.567308    0.719209    0.639395     0.004307
NI3166   NI        0.578832    0.739970    0.600211     0.004307
NI3167   NI        0.609208    0.708464    0.602856     0.004307
NI3168   NI        0.614265    0.731390    0.643315     0.004307
NI3169   NI        0.648189    0.736828    0.603424     0.004307
NI3170   NI        0.654270    0.766018    0.563049     0.004307
NI3171   NI        0.694567    0.722916    0.598049     0.004307
NI3172   NI        0.622613    0.778584    0.652300     0.004307
NI3173   NI        0.720429    0.719936    0.639945     0.004307
NI3174   NI        0.730405    0.752366    0.587401     0.004307
NI3175   NI        0.755174    0.718036    0.607057     0.004307
NI3176   NI        0.160046    0.747517    0.654375     0.004307
NI3177   NI        0.297489    0.783483    0.592096     0.004307
NI3178   NI        0.348687    0.775550    0.640305     0.004307
NI3179   NI        0.339621    0.807947    0.606965     0.004307
NI3180   NI        0.385844    0.779020    0.599855     0.004307
NI3181   NI        0.375082    0.813718    0.636078     0.004307
NI3182   NI        0.418100    0.780259    0.638358     0.004307
NI3183   NI        0.416392    0.811695    0.603950     0.004307
NI3184   NI        0.455139    0.770642    0.598991     0.004307
NI3185   NI        0.453756    0.807475    0.635077     0.004307
NI3186   NI        0.491957    0.780030    0.640907     0.004307
NI3187   NI        0.476077    0.807071    0.587211     0.004307
NI3188   NI        0.519926    0.790055    0.601291     0.004307
NI3189   NI        0.503386    0.824169    0.629993     0.004307
NI3190   NI        0.563084    0.783030    0.600518     0.004307
NI3191   NI        0.559935    0.820983    0.627119     0.004307
NI3192   NI        0.611822    0.775277    0.603096     0.004307
NI3193   NI        0.663596    0.824610    0.573544     0.004307
NI3194   NI        0.266663    0.090702    0.637164     0.004307
NI3195   NI        0.309291    0.144431    0.734234     0.004307
NI3196   NI        0.344969    0.111350    0.685270     0.004307
NI3197   NI        0.349565    0.076111    0.649170     0.004307
NI3198   NI        0.390150    0.125377    0.715846     0.004307
NI3199   NI        0.386690    0.075261    0.679484     0.004307
NI3200   NI        0.420021    0.116945    0.669394     0.004307
NI3201   NI        0.457740    0.088531    0.670374     0.004307
NI3202   NI        0.447702    0.114971    0.712528     0.004307
NI3203   NI        0.486425    0.088001    0.717436     0.004307
NI3204   NI        0.492775    0.114795    0.679317     0.004307
NI3205   NI        0.534490    0.089699    0.674013     0.004307
NI3206   NI        0.570446    0.129288    0.674231     0.004307
NI3207   NI        0.537247    0.118738    0.713291     0.004307
NI3208   NI        0.601299    0.118765    0.705922     0.004307
NI3209   NI        0.658630    0.133437    0.687438     0.004307
NI3210   NI        0.167315    0.216326    0.685209     0.004307
NI3211   NI        0.237063    0.122731    0.642800     0.004307
NI3212   NI        0.208521    0.185271    0.680556     0.004307
NI3213   NI        0.267785    0.142982    0.712298     0.004307
NI3214   NI        0.265343    0.184154    0.683034     0.004307
NI3215   NI        0.305761    0.151286    0.679724     0.004307
NI3216   NI        0.301866    0.187943    0.713709     0.004307
NI3217   NI        0.341752    0.178066    0.753482     0.004307
AU3218   AU        0.339605    0.186397    0.681163     0.007504
NI3219   NI        0.378339    0.149296    0.676047     0.004307
NI3220   NI        0.378752    0.191111    0.716604     0.004307
NI3221   NI        0.421904    0.159020    0.723420     0.004307
AU3222   AU        0.419053    0.187782    0.680191     0.007504
NI3223   NI        0.456352    0.153403    0.679528     0.004307
AU3224   AU        0.455504    0.188310    0.717920     0.007504
NI3225   NI        0.491364    0.153561    0.709737     0.004307
AU3226   AU        0.493230    0.189079    0.680723     0.007504
NI3227   NI        0.532167    0.152563    0.680895     0.004307
NI3228   NI        0.526750    0.192605    0.715899     0.004307
NI3229   NI        0.572058    0.152187    0.714707     0.004307
AU3230   AU        0.572993    0.188364    0.679898     0.007504
NI3231   NI        0.611263    0.152823    0.676381     0.004307
NI3232   NI        0.608897    0.189010    0.719508     0.004307
NI3233   NI        0.631891    0.150072    0.721875     0.004307
NI3234   NI        0.646026    0.184450    0.682378     0.004307
NI3235   NI        0.693839    0.179772    0.685393     0.004307
NI3236   NI        0.660812    0.182461    0.728856     0.004307
NI3237   NI        0.737669    0.187598    0.660907     0.004307
NI3238   NI        0.120573    0.261978    0.674476     0.004307
NI3239   NI        0.091560    0.206819    0.594055     0.004307
NI3240   NI        0.121613    0.294064    0.706987     0.004307
NI3241   NI        0.205093    0.215070    0.716380     0.004307
NI3242   NI        0.190804    0.253583    0.679021     0.004307
NI3243   NI        0.229733    0.226236    0.677124     0.004307
NI3244   NI        0.225652    0.255987    0.717654     0.004307
NI3245   NI        0.265573    0.219294    0.720391     0.004307
AU3246   AU        0.265003    0.259648    0.680559     0.007504
AU3247   AU        0.303022    0.221003    0.681268     0.007504
AU3248   AU        0.301078    0.257765    0.721200     0.007504
AU3249   AU        0.339700    0.223725    0.719183     0.007504
AU3250   AU        0.338900    0.256068    0.678765     0.007504
AU3251   AU        0.380473    0.222202    0.680883     0.007504
AU3252   AU        0.379583    0.256314    0.722412     0.007504
AU3253   AU        0.418853    0.222632    0.718635     0.007504
AU3254   AU        0.416878    0.258613    0.681788     0.007504
AU3255   AU        0.455012    0.222744    0.680576     0.007504
AU3256   AU        0.454115    0.257991    0.720762     0.007504
AU3257   AU        0.493377    0.222374    0.723609     0.007504
AU3258   AU        0.494887    0.256254    0.680256     0.007504
AU3259   AU        0.532389    0.222516    0.681281     0.007504
AU3260   AU        0.534026    0.256991    0.721438     0.007504
AU3261   AU        0.573321    0.222825    0.717294     0.007504
AU3262   AU        0.571992    0.257027    0.682177     0.007504
AU3263   AU        0.608838    0.220626    0.678691     0.007504
AU3264   AU        0.611444    0.258455    0.718051     0.007504
NI3265   NI        0.647571    0.227405    0.710625     0.004307
AU3266   AU        0.648764    0.260072    0.678403     0.007504
NI3267   NI        0.686167    0.228017    0.672571     0.004307
NI3268   NI        0.682189    0.259523    0.718560     0.004307
NI3269   NI        0.765173    0.263355    0.717762     0.004307
NI3270   NI        0.719589    0.265703    0.682567     0.004307
NI3271   NI        0.757710    0.232036    0.674118     0.004307
NI3272   NI        0.734601    0.207017    0.702930     0.004307
NI3273   NI        0.790949    0.265538    0.678846     0.004307
NI3274   NI        0.149001    0.298949    0.745196     0.004307
NI3275   NI        0.110374    0.327293    0.677292     0.004307
NI3276   NI        0.158301    0.298693    0.678592     0.004307
NI3277   NI        0.150236    0.330269    0.710291     0.004307
NI3278   NI        0.192051    0.291069    0.719894     0.004307
AU3279   AU        0.190335    0.326798    0.679043     0.007504
AU3280   AU        0.226245    0.291144    0.681762     0.007504
AU3281   AU        0.225032    0.326528    0.719587     0.007504
AU3282   AU        0.266766    0.293983    0.718532     0.007504
AU3283   AU        0.263841    0.328710    0.680630     0.007504
AU3284   AU        0.302435    0.292883    0.681842     0.007504
AU3285   AU        0.301558    0.327526    0.722520     0.007504
AU3286   AU        0.341128    0.291958    0.723023     0.007504
AU3287   AU        0.340023    0.327805    0.681777     0.007504
AU3288   AU        0.378212    0.292399    0.683595     0.007504
AU3289   AU        0.381383    0.329332    0.721050     0.007504
AU3290   AU        0.419359    0.292022    0.721341     0.007504
AU3291   AU        0.417690    0.329801    0.679402     0.007504
AU3292   AU        0.456894    0.292529    0.679221     0.007504
AU3293   AU        0.455804    0.327192    0.718924     0.007504
AU3294   AU        0.494280    0.292496    0.720189     0.007504
AU3295   AU        0.495022    0.328844    0.678300     0.007504
AU3296   AU        0.533467    0.290232    0.678529     0.007504
AU3297   AU        0.533373    0.329906    0.718226     0.007504
AU3298   AU        0.569844    0.292850    0.719212     0.007504
AU3299   AU        0.571780    0.330914    0.680167     0.007504
AU3300   AU        0.607372    0.292815    0.680340     0.007504
AU3301   AU        0.610663    0.328389    0.720069     0.007504
AU3302   AU        0.648014    0.295316    0.715389     0.007504
AU3303   AU        0.645513    0.328672    0.677473     0.007504
AU3304   AU        0.685854    0.295458    0.676852     0.007504
AU3305   AU        0.680087    0.330404    0.712888     0.007504
NI3306   NI        0.717683    0.304763    0.709186     0.004307
AU3307   AU        0.719630    0.334225    0.672136     0.007504
NI3308   NI        0.749271    0.298261    0.677186     0.004307
NI3309   NI        0.754021    0.335056    0.712109     0.004307
NI3310   NI        0.789755    0.301466    0.717316     0.004307
NI3311   NI        0.787375    0.333293    0.676519     0.004307
NI3312   NI        0.079457    0.368688    0.674796     0.004307
NI3313   NI        0.051393    0.452791    0.653953     0.004307
NI3314   NI        0.113130    0.362288    0.703189     0.004307
NI3315   NI        0.112607    0.403984    0.672442     0.004307
NI3316   NI        0.150642    0.367049    0.677979     0.004307
NI3317   NI        0.154333    0.404311    0.708767     0.004307
NI3318   NI        0.193281    0.364178    0.714101     0.004307
AU3319   AU        0.188722    0.401138    0.678195     0.007504
AU3320   AU        0.226743    0.363306    0.678511     0.007504
AU3321   AU        0.225395    0.399270    0.717817     0.007504
AU3322   AU        0.264124    0.364546    0.719171     0.007504
AU3323   AU        0.263490    0.399947    0.681823     0.007504
AU3324   AU        0.301538    0.362988    0.681610     0.007504
AU3325   AU        0.302481    0.398203    0.717233     0.007504
AU3326   AU        0.341913    0.364027    0.719368     0.007504
AU3327   AU        0.340547    0.398852    0.679989     0.007504
AU3328   AU        0.378534    0.364070    0.679428     0.007504
AU3329   AU        0.379201    0.399117    0.719297     0.007504
AU3330   AU        0.417086    0.363998    0.718322     0.007504
AU3331   AU        0.419509    0.399538    0.676979     0.007504
AU3332   AU        0.456122    0.361328    0.678966     0.007504
AU3333   AU        0.456233    0.399772    0.715471     0.007504
AU3334   AU        0.494313    0.364682    0.717361     0.007504
AU3335   AU        0.493567    0.399667    0.676891     0.007504
AU3336   AU        0.533580    0.368186    0.679146     0.007504
AU3337   AU        0.534137    0.399792    0.719520     0.007504
AU3338   AU        0.572045    0.364227    0.720433     0.007504
AU3339   AU        0.572957    0.401237    0.679515     0.007504
AU3340   AU        0.609545    0.363568    0.679713     0.007504
AU3341   AU        0.610764    0.399114    0.717880     0.007504
AU3342   AU        0.646573    0.363626    0.715993     0.007504
AU3343   AU        0.648322    0.399736    0.678723     0.007504
AU3344   AU        0.684783    0.364192    0.674677     0.007504
AU3345   AU        0.684943    0.397643    0.714004     0.007504
NI3346   NI        0.716599    0.366536    0.708620     0.004307
AU3347   AU        0.721367    0.399686    0.674185     0.007504
NI3348   NI        0.751744    0.368260    0.675651     0.004307
NI3349   NI        0.755614    0.404860    0.706316     0.004307
NI3350   NI        0.785814    0.369633    0.707830     0.004307
NI3351   NI        0.793403    0.405140    0.675429     0.004307
NI3352   NI        0.830715    0.372870    0.673843     0.004307
NI3353   NI        0.858361    0.407705    0.684038     0.004307
NI3354   NI        0.090894    0.441967    0.674179     0.004307
NI3355   NI        0.086468    0.466021    0.713510     0.004307
NI3356   NI        0.121018    0.439250    0.712513     0.004307
NI3357   NI        0.126247    0.471765    0.682640     0.004307
NI3358   NI        0.156702    0.439035    0.679930     0.004307
NI3359   NI        0.165293    0.469680    0.722193     0.004307
NI3360   NI        0.187755    0.435735    0.712381     0.004307
AU3361   AU        0.187550    0.474186    0.678105     0.007504
AU3362   AU        0.225336    0.437553    0.679004     0.007504
AU3363   AU        0.224233    0.473847    0.716785     0.007504
AU3364   AU        0.264451    0.437549    0.716953     0.007504
AU3365   AU        0.261961    0.472319    0.677224     0.007504
AU3366   AU        0.301906    0.435419    0.680957     0.007504
AU3367   AU        0.300003    0.473101    0.717012     0.007504
AU3368   AU        0.339591    0.436763    0.719841     0.007504
AU3369   AU        0.338572    0.468877    0.680346     0.007504
AU3370   AU        0.378660    0.432853    0.681754     0.007504
AU3371   AU        0.377992    0.469228    0.717985     0.007504
AU3372   AU        0.417840    0.433153    0.719283     0.007504
AU3373   AU        0.415986    0.467813    0.678447     0.007504
AU3374   AU        0.456302    0.437198    0.679511     0.007504
AU3375   AU        0.452643    0.470479    0.719784     0.007504
AU3376   AU        0.494497    0.434915    0.717297     0.007504
AU3377   AU        0.491959    0.473028    0.679549     0.007504
AU3378   AU        0.530891    0.436831    0.679379     0.007504
AU3379   AU        0.535286    0.473198    0.716693     0.007504
AU3380   AU        0.572688    0.437682    0.719362     0.007504
AU3381   AU        0.575676    0.476167    0.681080     0.007504
AU3382   AU        0.611206    0.436328    0.679109     0.007504
AU3383   AU        0.612882    0.471766    0.719969     0.007504
AU3384   AU        0.649431    0.434407    0.717456     0.007504
AU3385   AU        0.649662    0.473705    0.678095     0.007504
AU3386   AU        0.685602    0.435333    0.678524     0.007504
AU3387   AU        0.687391    0.472612    0.715901     0.007504
NI3388   NI        0.719200    0.430318    0.711637     0.004307
AU3389   AU        0.724720    0.470661    0.676971     0.007504
NI3390   NI        0.762780    0.437057    0.675714     0.004307
NI3391   NI        0.751451    0.480729    0.717283     0.004307
NI3392   NI        0.784797    0.442437    0.721456     0.004307
NI3393   NI        0.784694    0.480705    0.680900     0.004307
NI3394   NI        0.811748    0.443327    0.685346     0.004307
NI3395   NI        0.789532    0.481290    0.746668     0.004307
NI3396   NI        0.083718    0.505073    0.682724     0.004307
NI3397   NI        0.121324    0.501548    0.717016     0.004307
NI3398   NI        0.118138    0.540252    0.680625     0.004307
NI3399   NI        0.154608    0.504020    0.674012     0.004307
NI3400   NI        0.151236    0.540394    0.715602     0.004307
NI3401   NI        0.189158    0.511049    0.709730     0.004307
AU3402   AU        0.187673    0.545226    0.675080     0.007504
AU3403   AU        0.223689    0.508665    0.677566     0.007504
AU3404   AU        0.222309    0.545865    0.714908     0.007504
AU3405   AU        0.262323    0.510160    0.717766     0.007504
AU3406   AU        0.260945    0.547066    0.679584     0.007504
AU3407   AU        0.300737    0.507101    0.678820     0.007504
AU3408   AU        0.300784    0.544449    0.716751     0.007504
AU3409   AU        0.339325    0.506271    0.718605     0.007504
AU3410   AU        0.340002    0.541982    0.677043     0.007504
AU3411   AU        0.377740    0.507532    0.677835     0.007504
AU3412   AU        0.377742    0.541761    0.716649     0.007504
AU3413   AU        0.414596    0.507059    0.716496     0.007504
AU3414   AU        0.415711    0.543973    0.680077     0.007504
AU3415   AU        0.453420    0.508977    0.678981     0.007504
AU3416   AU        0.453259    0.544274    0.719796     0.007504
AU3417   AU        0.492900    0.506051    0.718729     0.007504
AU3418   AU        0.491746    0.543348    0.680548     0.007504
AU3419   AU        0.535267    0.508524    0.681253     0.007504
AU3420   AU        0.533237    0.544407    0.719976     0.007504
AU3421   AU        0.574014    0.509157    0.720111     0.007504
AU3422   AU        0.571264    0.544480    0.679540     0.007504
AU3423   AU        0.612794    0.509008    0.680935     0.007504
AU3424   AU        0.611151    0.545167    0.717124     0.007504
AU3425   AU        0.650906    0.510838    0.719416     0.007504
AU3426   AU        0.649852    0.544031    0.680734     0.007504
AU3427   AU        0.685112    0.507058    0.679433     0.007504
AU3428   AU        0.684692    0.545379    0.716047     0.007504
NI3429   NI        0.718979    0.512686    0.717592     0.004307
AU3430   AU        0.717930    0.541156    0.674975     0.007504
NI3431   NI        0.752642    0.511769    0.675389     0.004307
NI3432   NI        0.751417    0.540506    0.714188     0.004307
NI3433   NI        0.799159    0.514776    0.719785     0.004307
NI3434   NI        0.790049    0.535830    0.683158     0.004307
NI3435   NI        0.828634    0.496933    0.683228     0.004307
NI3436   NI        0.126396    0.575268    0.712531     0.004307
NI3437   NI        0.085266    0.576566    0.686512     0.004307
NI3438   NI        0.161409    0.579608    0.675009     0.004307
NI3439   NI        0.159268    0.612542    0.707584     0.004307
NI3440   NI        0.187885    0.580286    0.715696     0.004307
NI3441   NI        0.192619    0.617828    0.675050     0.004307
AU3442   AU        0.226024    0.580988    0.678453     0.007504
NI3443   NI        0.225522    0.618102    0.711319     0.004307
AU3444   AU        0.261874    0.582814    0.715045     0.007504
AU3445   AU        0.262600    0.618135    0.677659     0.007504
AU3446   AU        0.302366    0.581662    0.678406     0.007504
AU3447   AU        0.303126    0.618397    0.712692     0.007504
AU3448   AU        0.340152    0.581997    0.718058     0.007504
AU3449   AU        0.342295    0.618074    0.677666     0.007504
AU3450   AU        0.380824    0.579175    0.679841     0.007504
AU3451   AU        0.375801    0.616582    0.714732     0.007504
AU3452   AU        0.416352    0.580803    0.718961     0.007504
AU3453   AU        0.414860    0.615866    0.680096     0.007504
AU3454   AU        0.452620    0.578649    0.678663     0.007504
AU3455   AU        0.452582    0.614796    0.714624     0.007504
AU3456   AU        0.490575    0.582177    0.716778     0.007504
AU3457   AU        0.492413    0.613382    0.678854     0.007504
AU3458   AU        0.532079    0.580839    0.677574     0.007504
AU3459   AU        0.532928    0.615335    0.714929     0.007504
AU3460   AU        0.572540    0.579492    0.716743     0.007504
AU3461   AU        0.572898    0.614743    0.679079     0.007504
AU3462   AU        0.609616    0.580071    0.679143     0.007504
AU3463   AU        0.608074    0.615789    0.715182     0.007504
AU3464   AU        0.649402    0.578469    0.716296     0.007504
AU3465   AU        0.646576    0.615133    0.676375     0.007504
AU3466   AU        0.687160    0.579247    0.675805     0.007504
NI3467   NI        0.682014    0.611235    0.706746     0.004307
NI3468   NI        0.720589    0.573292    0.711189     0.004307
NI3469   NI        0.719842    0.609436    0.675482     0.004307
NI3470   NI        0.753978    0.571942    0.676707     0.004307
NI3471   NI        0.720096    0.637743    0.712833     0.004307
NI3472   NI        0.787544    0.579886    0.711687     0.004307
NI3473   NI        0.825430    0.566832    0.690477     0.004307
NI3474   NI        0.125743    0.614127    0.667707     0.004307
NI3475   NI        0.184173    0.652640    0.704429     0.004307
NI3476   NI        0.188313    0.710377    0.635758     0.004307
NI3477   NI        0.217841    0.651324    0.667790     0.004307
NI3478   NI        0.226914    0.682152    0.703276     0.004307
NI3479   NI        0.261497    0.653727    0.706834     0.004307
NI3480   NI        0.273094    0.689614    0.674023     0.004307
AU3481   AU        0.303771    0.650781    0.675298     0.007504
NI3482   NI        0.307498    0.689865    0.709620     0.004307
AU3483   AU        0.340357    0.654515    0.712995     0.007504
AU3484   AU        0.341169    0.686525    0.672109     0.007504
AU3485   AU        0.380310    0.651884    0.675634     0.007504
NI3486   NI        0.378261    0.680480    0.711872     0.004307
AU3487   AU        0.417512    0.649585    0.715501     0.007504
AU3488   AU        0.419396    0.683536    0.672079     0.007504
AU3489   AU        0.454629    0.648723    0.677199     0.007504
NI3490   NI        0.453661    0.681962    0.709386     0.004307
NI3491   NI        0.493500    0.650069    0.713346     0.004307
AU3492   AU        0.492396    0.683506    0.676711     0.007504
AU3493   AU        0.532856    0.651307    0.675012     0.007504
NI3494   NI        0.531021    0.682699    0.717863     0.004307
AU3495   AU        0.567805    0.649365    0.715759     0.007504
AU3496   AU        0.568218    0.684079    0.673977     0.007504
AU3497   AU        0.609000    0.649965    0.675601     0.007504
NI3498   NI        0.605120    0.686031    0.707918     0.004307
NI3499   NI        0.642264    0.650190    0.715488     0.004307
NI3500   NI        0.648290    0.676567    0.677584     0.004307
NI3501   NI        0.689846    0.646707    0.674713     0.004307
NI3502   NI        0.694761    0.678410    0.709043     0.004307
NI3503   NI        0.720977    0.677006    0.670398     0.004307
NI3504   NI        0.682697    0.707416    0.678893     0.004307
NI3505   NI        0.753160    0.645846    0.668582     0.004307
NI3506   NI        0.268525    0.756392    0.698234     0.004307
NI3507   NI        0.268080    0.714108    0.710382     0.004307
NI3508   NI        0.255202    0.757164    0.650758     0.004307
NI3509   NI        0.302810    0.722569    0.673965     0.004307
NI3510   NI        0.297570    0.783427    0.673467     0.004307
NI3511   NI        0.347669    0.712305    0.712388     0.004307
NI3512   NI        0.344570    0.745562    0.677921     0.004307
NI3513   NI        0.382904    0.713276    0.674175     0.004307
NI3514   NI        0.388930    0.751699    0.711635     0.004307
NI3515   NI        0.418551    0.712540    0.708011     0.004307
NI3516   NI        0.420083    0.745994    0.676035     0.004307
NI3517   NI        0.457263    0.719597    0.676350     0.004307
NI3518   NI        0.456873    0.745524    0.715309     0.004307
NI3519   NI        0.490901    0.711198    0.713766     0.004307
NI3520   NI        0.497804    0.747979    0.675383     0.004307
NI3521   NI        0.526323    0.714637    0.676418     0.004307
NI3522   NI        0.553848    0.751140    0.678260     0.004307
NI3523   NI        0.588876    0.721775    0.682000     0.004307
NI3524   NI        0.582292    0.764078    0.639908     0.004307
NI3525   NI        0.635772    0.717916    0.687645     0.004307
NI3526   NI        0.605052    0.739472    0.723363     0.004307
NI3527   NI        0.654900    0.694891    0.722518     0.004307
NI3528   NI        0.670495    0.753866    0.657272     0.004307
NI3529   NI        0.654158    0.707462    0.640484     0.004307
NI3530   NI        0.384836    0.784655    0.671672     0.004307
NI3531   NI        0.416204    0.785956    0.709307     0.004307
NI3532   NI        0.455601    0.782199    0.676203     0.004307
NI3533   NI        0.526372    0.742288    0.715803     0.004307
NI3534   NI        0.547140    0.791348    0.663247     0.004307
NI3535   NI        0.419395    0.122857    0.754861     0.004307
NI3536   NI        0.502637    0.120154    0.745172     0.004307
NI3537   NI        0.262136    0.182139    0.748075     0.004307
NI3538   NI        0.306143    0.186245    0.787729     0.004307
NI3539   NI        0.340982    0.186648    0.820157     0.004307
NI3540   NI        0.350348    0.154562    0.711590     0.004307
NI3541   NI        0.388755    0.157640    0.753182     0.004307
NI3542   NI        0.379961    0.182316    0.797257     0.004307
NI3543   NI        0.423473    0.154063    0.800069     0.004307
NI3544   NI        0.416559    0.187443    0.763651     0.004307
NI3545   NI        0.455035    0.151307    0.755837     0.004307
NI3546   NI        0.458336    0.181338    0.796360     0.004307
NI3547   NI        0.491317    0.140155    0.795873     0.004307
NI3548   NI        0.489575    0.186592    0.755871     0.004307
NI3549   NI        0.526807    0.160943    0.749876     0.004307
NI3550   NI        0.536034    0.210068    0.810464     0.004307
NI3551   NI        0.568706    0.184923    0.754358     0.004307
NI3552   NI        0.576644    0.136381    0.759782     0.004307
NI3553   NI        0.618913    0.183706    0.766036     0.004307
NI3554   NI        0.650646    0.216117    0.763825     0.004307
NI3555   NI        0.190186    0.259331    0.753270     0.004307
NI3556   NI        0.176091    0.178814    0.729044     0.004307
NI3557   NI        0.264704    0.218304    0.787287     0.004307
NI3558   NI        0.306969    0.218595    0.821350     0.004307
NI3559   NI        0.259953    0.260170    0.753439     0.004307
NI3560   NI        0.301965    0.221046    0.756362     0.004307
NI3561   NI        0.297093    0.253316    0.784619     0.004307
NI3562   NI        0.343847    0.219151    0.786362     0.004307
AU3563   AU        0.342642    0.258111    0.760025     0.007504
NI3564   NI        0.382884    0.223384    0.759398     0.004307
NI3565   NI        0.380271    0.260983    0.792253     0.004307
NI3566   NI        0.423522    0.225232    0.799302     0.004307
AU3567   AU        0.418584    0.259415    0.761213     0.007504
AU3568   AU        0.453059    0.221983    0.759490     0.007504
NI3569   NI        0.459033    0.256284    0.794995     0.004307
NI3570   NI        0.492112    0.219019    0.795429     0.004307
AU3571   AU        0.493122    0.256267    0.758679     0.007504
NI3572   NI        0.530758    0.224123    0.760145     0.004307
NI3573   NI        0.526576    0.259936    0.796075     0.004307
NI3574   NI        0.564558    0.164808    0.792117     0.004307
AU3575   AU        0.572012    0.259272    0.756527     0.007504
NI3576   NI        0.604113    0.224457    0.758079     0.004307
NI3577   NI        0.612193    0.263397    0.791374     0.004307
NI3578   NI        0.619643    0.219033    0.804709     0.004307
NI3579   NI        0.648269    0.265343    0.749570     0.004307
NI3580   NI        0.694552    0.219203    0.728527     0.004307
NI3581   NI        0.660501    0.255057    0.803473     0.004307
NI3582   NI        0.685829    0.246193    0.767202     0.004307
NI3583   NI        0.156767    0.260949    0.707627     0.004307
NI3584   NI        0.186319    0.298344    0.777706     0.004307
NI3585   NI        0.183809    0.334049    0.742178     0.004307
NI3586   NI        0.223730    0.290261    0.750389     0.004307
NI3587   NI        0.219934    0.327217    0.776354     0.004307
NI3588   NI        0.256863    0.287079    0.795045     0.004307
NI3589   NI        0.262431    0.326441    0.754207     0.004307
AU3590   AU        0.303970    0.292468    0.758839     0.007504
NI3591   NI        0.310287    0.335422    0.797265     0.004307
NI3592   NI        0.342317    0.297409    0.800198     0.004307
AU3593   AU        0.341436    0.329734    0.756962     0.007504
AU3594   AU        0.380611    0.294141    0.757080     0.007504
AU3595   AU        0.381284    0.329549    0.795737     0.007504
AU3596   AU        0.420295    0.293244    0.796399     0.007504
AU3597   AU        0.417785    0.328666    0.757909     0.007504
AU3598   AU        0.457347    0.293931    0.761279     0.007504
AU3599   AU        0.455625    0.327930    0.794841     0.007504
AU3600   AU        0.495317    0.294366    0.797098     0.007504
AU3601   AU        0.495374    0.331415    0.758444     0.007504
AU3602   AU        0.531063    0.293744    0.758328     0.007504
AU3603   AU        0.532673    0.328713    0.796561     0.007504
NI3604   NI        0.573103    0.291054    0.794916     0.004307
AU3605   AU        0.570232    0.330978    0.757833     0.007504
AU3606   AU        0.608803    0.294385    0.754937     0.007504
NI3607   NI        0.610815    0.329419    0.796305     0.004307
NI3608   NI        0.644276    0.302176    0.787470     0.004307
AU3609   AU        0.649449    0.330390    0.753539     0.007504
NI3610   NI        0.686931    0.296412    0.743958     0.004307
NI3611   NI        0.690965    0.325613    0.784942     0.004307
NI3612   NI        0.723535    0.270600    0.740615     0.004307
NI3613   NI        0.716120    0.333385    0.743545     0.004307
NI3614   NI        0.750078    0.305861    0.753735     0.004307
NI3615   NI        0.085726    0.409274    0.717257     0.004307
NI3616   NI        0.150057    0.371100    0.740880     0.004307
NI3617   NI        0.153671    0.399339    0.785026     0.004307
NI3618   NI        0.180683    0.366344    0.777506     0.004307
NI3619   NI        0.187660    0.400460    0.746875     0.004307
NI3620   NI        0.229752    0.365125    0.755525     0.004307
NI3621   NI        0.221862    0.407119    0.776123     0.004307
NI3622   NI        0.272047    0.366987    0.792535     0.004307
AU3623   AU        0.264986    0.398880    0.758184     0.007504
AU3624   AU        0.304295    0.364848    0.757454     0.007504
AU3625   AU        0.301975    0.402006    0.794074     0.007504
AU3626   AU        0.340788    0.367968    0.795709     0.007504
AU3627   AU        0.339166    0.398575    0.758315     0.007504
AU3628   AU        0.380215    0.365101    0.757995     0.007504
AU3629   AU        0.381284    0.401858    0.795488     0.007504
AU3630   AU        0.418152    0.365755    0.796330     0.007504
AU3631   AU        0.415686    0.400462    0.759660     0.007504
AU3632   AU        0.456330    0.364269    0.760070     0.007504
AU3633   AU        0.455605    0.401060    0.795961     0.007504
AU3634   AU        0.494959    0.364941    0.796859     0.007504
AU3635   AU        0.494412    0.401034    0.758862     0.007504
AU3636   AU        0.532683    0.365708    0.759300     0.007504
AU3637   AU        0.531809    0.400647    0.796345     0.007504
AU3638   AU        0.572664    0.365892    0.797701     0.007504
AU3639   AU        0.573769    0.400861    0.760012     0.007504
AU3640   AU        0.611776    0.363664    0.758552     0.007504
AU3641   AU        0.610488    0.397534    0.797014     0.007504
NI3642   NI        0.645279    0.364149    0.789603     0.004307
AU3643   AU        0.647185    0.399531    0.755120     0.007504
NI3644   NI        0.679734    0.362804    0.752293     0.004307
NI3645   NI        0.660762    0.399861    0.812204     0.004307
NI3646   NI        0.729417    0.364255    0.788494     0.004307
NI3647   NI        0.721103    0.391332    0.743956     0.004307
NI3648   NI        0.760717    0.364895    0.746295     0.004307
NI3649   NI        0.756428    0.444099    0.821974     0.004307
NI3650   NI        0.754929    0.426125    0.749444     0.004307
NI3651   NI        0.107284    0.471933    0.757717     0.004307
NI3652   NI        0.147285    0.433199    0.756655     0.004307
NI3653   NI        0.148307    0.475363    0.784712     0.004307
NI3654   NI        0.188164    0.436904    0.776973     0.004307
NI3655   NI        0.214903    0.471401    0.772601     0.004307
NI3656   NI        0.224608    0.436018    0.741929     0.004307
NI3657   NI        0.247490    0.480307    0.803838     0.004307
NI3658   NI        0.259199    0.440576    0.787585     0.004307
AU3659   AU        0.264091    0.473179    0.755439     0.007504
AU3660   AU        0.300838    0.435588    0.753180     0.007504
NI3661   NI        0.300996    0.471826    0.790345     0.004307
AU3662   AU        0.338460    0.434883    0.794813     0.007504
AU3663   AU        0.340441    0.470416    0.756700     0.007504
AU3664   AU        0.377615    0.433441    0.756080     0.007504
AU3665   AU        0.375441    0.470553    0.792818     0.007504
AU3666   AU        0.418515    0.437052    0.793699     0.007504
AU3667   AU        0.414345    0.471367    0.755347     0.007504
AU3668   AU        0.455137    0.434719    0.756609     0.007504
AU3669   AU        0.454747    0.473586    0.789188     0.007504
AU3670   AU        0.495063    0.437762    0.793831     0.007504
AU3671   AU        0.495917    0.469802    0.753448     0.007504
AU3672   AU        0.533881    0.435163    0.757227     0.007504
AU3673   AU        0.534639    0.471227    0.791442     0.007504
AU3674   AU        0.573458    0.435133    0.794091     0.007504
AU3675   AU        0.572021    0.470871    0.755135     0.007504
AU3676   AU        0.610929    0.435067    0.755485     0.007504
NI3677   NI        0.613292    0.470669    0.783903     0.004307
NI3678   NI        0.650879    0.433090    0.783983     0.004307
AU3679   AU        0.650150    0.471274    0.751880     0.007504
NI3680   NI        0.683168    0.436748    0.751968     0.004307
NI3681   NI        0.657374    0.475626    0.807027     0.004307
NI3682   NI        0.695838    0.396164    0.780780     0.004307
NI3683   NI        0.694764    0.474720    0.776961     0.004307
NI3684   NI        0.722704    0.458836    0.745813     0.004307
NI3685   NI        0.710484    0.448931    0.811016     0.004307
NI3686   NI        0.755576    0.465402    0.782355     0.004307
NI3687   NI        0.159147    0.511422    0.744793     0.004307
NI3688   NI        0.190688    0.508808    0.787982     0.004307
NI3689   NI        0.182590    0.552090    0.750588     0.004307
NI3690   NI        0.223404    0.508150    0.751412     0.004307
NI3691   NI        0.223438    0.545216    0.775120     0.004307
NI3692   NI        0.263052    0.514017    0.777077     0.004307
NI3693   NI        0.262082    0.549797    0.751615     0.004307
AU3694   AU        0.303131    0.508500    0.754141     0.007504
NI3695   NI        0.300446    0.545763    0.777860     0.004307
AU3696   AU        0.339427    0.507586    0.790785     0.007504
AU3697   AU        0.339505    0.543738    0.753823     0.007504
AU3698   AU        0.378530    0.506951    0.755413     0.007504
AU3699   AU        0.378561    0.544463    0.790132     0.007504
AU3700   AU        0.416100    0.509491    0.792770     0.007504
AU3701   AU        0.415527    0.542319    0.753375     0.007504
AU3702   AU        0.451481    0.507103    0.754183     0.007504
AU3703   AU        0.454044    0.546758    0.779019     0.007504
AU3704   AU        0.492673    0.508439    0.779803     0.007504
AU3705   AU        0.492221    0.544138    0.751262     0.007504
AU3706   AU        0.533495    0.505805    0.754704     0.007504
AU3707   AU        0.531589    0.545981    0.779119     0.007504
NI3708   NI        0.570625    0.506276    0.787301     0.004307
AU3709   AU        0.573236    0.544675    0.753775     0.007504
AU3710   AU        0.612347    0.507851    0.752155     0.007504
NI3711   NI        0.610077    0.548002    0.782283     0.004307
NI3712   NI        0.652016    0.510553    0.776293     0.004307
AU3713   AU        0.651221    0.548696    0.754803     0.007504
NI3714   NI        0.688582    0.510225    0.749272     0.004307
NI3715   NI        0.687473    0.546882    0.788401     0.004307
NI3716   NI        0.725456    0.506982    0.799714     0.004307
NI3717   NI        0.717219    0.545593    0.753849     0.004307
NI3718   NI        0.742166    0.504954    0.757630     0.004307
NI3719   NI        0.145841    0.648791    0.733505     0.004307
NI3720   NI        0.181643    0.585621    0.791836     0.004307
NI3721   NI        0.183216    0.615418    0.752997     0.004307
NI3722   NI        0.221379    0.580020    0.745255     0.004307
NI3723   NI        0.227572    0.620159    0.766901     0.004307
NI3724   NI        0.258301    0.590380    0.777666     0.004307
NI3725   NI        0.268494    0.626766    0.743778     0.004307
AU3726   AU        0.299646    0.583310    0.751362     0.007504
NI3727   NI        0.298727    0.625474    0.783864     0.004307
NI3728   NI        0.337543    0.584725    0.777372     0.004307
NI3729   NI        0.332560    0.622362    0.749528     0.004307
AU3730   AU        0.377045    0.579660    0.752690     0.007504
NI3731   NI        0.369227    0.619827    0.781011     0.004307
NI3732   NI        0.411126    0.576179    0.784526     0.004307
AU3733   AU        0.414115    0.617728    0.754581     0.007504
AU3734   AU        0.452947    0.585046    0.753345     0.007504
NI3735   NI        0.458079    0.619467    0.786315     0.004307
AU3736   AU        0.493349    0.581112    0.777603     0.007504
AU3737   AU        0.494499    0.619044    0.751428     0.007504
AU3738   AU        0.533355    0.583385    0.750810     0.007504
NI3739   NI        0.532072    0.619424    0.787144     0.004307
NI3740   NI        0.571680    0.581041    0.779875     0.004307
AU3741   AU        0.573790    0.617241    0.754499     0.007504
AU3742   AU        0.611062    0.582042    0.753950     0.007504
NI3743   NI        0.610038    0.615211    0.791521     0.004307
NI3744   NI        0.643489    0.583814    0.788984     0.004307
NI3745   NI        0.648979    0.610433    0.748162     0.004307
NI3746   NI        0.688412    0.581430    0.749726     0.004307
NI3747   NI        0.690180    0.616857    0.777468     0.004307
NI3748   NI        0.719047    0.577451    0.785135     0.004307
NI3749   NI        0.729724    0.608089    0.750174     0.004307
NI3750   NI        0.759397    0.570906    0.748191     0.004307
NI3751   NI        0.219190    0.653366    0.736711     0.004307
NI3752   NI        0.267112    0.680019    0.745765     0.004307
NI3753   NI        0.312233    0.717579    0.747338     0.004307
NI3754   NI        0.306517    0.659486    0.743690     0.004307
NI3755   NI        0.298780    0.672089    0.787679     0.004307
NI3756   NI        0.340799    0.652769    0.794198     0.004307
NI3757   NI        0.343733    0.685029    0.755646     0.004307
NI3758   NI        0.374383    0.650171    0.749298     0.004307
NI3759   NI        0.367752    0.718904    0.784810     0.004307
NI3760   NI        0.419271    0.651105    0.790011     0.004307
NI3761   NI        0.421240    0.679966    0.746267     0.004307
NI3762   NI        0.459754    0.648480    0.748522     0.004307
NI3763   NI        0.455714    0.678482    0.788922     0.004307
NI3764   NI        0.496319    0.651590    0.790465     0.004307
NI3765   NI        0.489944    0.688867    0.753706     0.004307
NI3766   NI        0.534512    0.646597    0.752412     0.004307
NI3767   NI        0.566206    0.684651    0.749839     0.004307
NI3768   NI        0.579857    0.648879    0.792004     0.004307
NI3769   NI        0.564471    0.715328    0.718183     0.004307
NI3770   NI        0.604759    0.658911    0.746127     0.004307
NI3771   NI        0.592973    0.688511    0.786234     0.004307
NI3772   NI        0.633403    0.658443    0.788779     0.004307
NI3773   NI        0.674216    0.654974    0.748581     0.004307
NI3774   NI        0.694007    0.661366    0.789429     0.004307
NI3775   NI        0.320472    0.756426    0.713852     0.004307
NI3776   NI        0.388510    0.712330    0.746961     0.004307
NI3777   NI        0.421062    0.706042    0.789805     0.004307
NI3778   NI        0.381581    0.776270    0.762573     0.004307
NI3779   NI        0.448762    0.713589    0.750086     0.004307
NI3780   NI        0.476540    0.719865    0.797414     0.004307
NI3781   NI        0.487244    0.743075    0.756956     0.004307
NI3782   NI        0.536904    0.722519    0.757393     0.004307
NI3783   NI        0.623349    0.700832    0.754325     0.004307
NI3784   NI        0.419229    0.186016    0.833736     0.004307
NI3785   NI        0.492588    0.184739    0.841239     0.004307
NI3786   NI        0.264114    0.297089    0.842904     0.004307
NI3787   NI        0.334813    0.252715    0.811326     0.004307
NI3788   NI        0.380024    0.225752    0.814489     0.004307
NI3789   NI        0.375292    0.273342    0.875852     0.004307
NI3790   NI        0.415736    0.258627    0.833699     0.004307
NI3791   NI        0.458428    0.221245    0.832997     0.004307
NI3792   NI        0.454979    0.257519    0.875618     0.004307
NI3793   NI        0.493320    0.261127    0.834730     0.004307
NI3794   NI        0.574446    0.210635    0.837963     0.004307
NI3795   NI        0.537905    0.249317    0.844881     0.004307
NI3796   NI        0.574733    0.236555    0.798658     0.004307
NI3797   NI        0.608416    0.242516    0.844248     0.004307
NI3798   NI        0.257970    0.328801    0.809148     0.004307
NI3799   NI        0.299878    0.290631    0.812138     0.004307
NI3800   NI        0.297132    0.335061    0.848595     0.004307
NI3801   NI        0.336786    0.289649    0.845471     0.004307
NI3802   NI        0.345713    0.335432    0.827414     0.004307
NI3803   NI        0.383807    0.293495    0.833951     0.004307
NI3804   NI        0.364310    0.320439    0.867316     0.004307
NI3805   NI        0.421889    0.289147    0.871361     0.004307
NI3806   NI        0.419153    0.326146    0.829720     0.004307
NI3807   NI        0.457233    0.290299    0.832230     0.004307
NI3808   NI        0.454338    0.326029    0.869649     0.004307
NI3809   NI        0.493996    0.333773    0.897109     0.004307
NI3810   NI        0.495860    0.329682    0.829319     0.004307
NI3811   NI        0.534016    0.292742    0.832828     0.004307
NI3812   NI        0.541792    0.324504    0.872107     0.004307
NI3813   NI        0.515331    0.283492    0.870780     0.004307
NI3814   NI        0.572521    0.330917    0.835671     0.004307
NI3815   NI        0.627841    0.286396    0.826587     0.004307
NI3816   NI        0.578790    0.279363    0.839471     0.004307
NI3817   NI        0.653157    0.330027    0.820083     0.004307
NI3818   NI        0.152718    0.423976    0.826196     0.004307
NI3819   NI        0.227594    0.369346    0.806968     0.004307
NI3820   NI        0.258410    0.365742    0.842658     0.004307
NI3821   NI        0.253458    0.404513    0.814627     0.004307
NI3822   NI        0.306124    0.375831    0.838084     0.004307
NI3823   NI        0.306615    0.406756    0.879869     0.004307
NI3824   NI        0.337107    0.366338    0.872563     0.004307
NI3825   NI        0.337605    0.406718    0.831374     0.004307
NI3826   NI        0.380565    0.365134    0.830612     0.004307
NI3827   NI        0.380280    0.403636    0.856543     0.004307
NI3828   NI        0.413410    0.371908    0.876551     0.004307
AU3829   AU        0.419370    0.401536    0.832914     0.007504
NI3830   NI        0.451003    0.361057    0.834970     0.004307
NI3831   NI        0.456765    0.408895    0.862164     0.004307
NI3832   NI        0.499604    0.366122    0.854064     0.004307
NI3833   NI        0.491958    0.403509    0.830055     0.004307
NI3834   NI        0.538966    0.365376    0.833058     0.004307
NI3835   NI        0.539996    0.397114    0.863836     0.004307
NI3836   NI        0.570518    0.359859    0.874704     0.004307
NI3837   NI        0.569925    0.399303    0.831501     0.004307
NI3838   NI        0.610977    0.363735    0.837453     0.004307
NI3839   NI        0.582967    0.407253    0.881903     0.004307
NI3840   NI        0.655918    0.369150    0.849650     0.004307
NI3841   NI        0.621421    0.407878    0.852624     0.004307
NI3842   NI        0.686715    0.360367    0.816332     0.004307
NI3843   NI        0.739287    0.399748    0.820578     0.004307
NI3844   NI        0.187026    0.468690    0.815426     0.004307
NI3845   NI        0.244132    0.441151    0.834483     0.004307
NI3846   NI        0.264690    0.430712    0.875395     0.004307
NI3847   NI        0.275943    0.479333    0.840586     0.004307
NI3848   NI        0.293115    0.436361    0.832627     0.004307
NI3849   NI        0.319706    0.486493    0.870488     0.004307
NI3850   NI        0.337710    0.439159    0.869538     0.004307
NI3851   NI        0.334293    0.472747    0.826039     0.004307
NI3852   NI        0.379993    0.437009    0.827518     0.004307
NI3853   NI        0.365949    0.470140    0.863141     0.004307
NI3854   NI        0.419506    0.445764    0.857159     0.004307
NI3855   NI        0.422594    0.476838    0.829469     0.004307
NI3856   NI        0.455447    0.439772    0.828831     0.004307
NI3857   NI        0.450569    0.477859    0.872387     0.004307
NI3858   NI        0.495282    0.451152    0.849370     0.004307
NI3859   NI        0.491275    0.481078    0.818108     0.004307
NI3860   NI        0.537785    0.436841    0.829347     0.004307
NI3861   NI        0.531092    0.477888    0.843990     0.004307
NI3862   NI        0.583299    0.439074    0.847923     0.004307
NI3863   NI        0.575478    0.473807    0.817661     0.004307
NI3864   NI        0.615836    0.439064    0.813377     0.004307
NI3865   NI        0.615967    0.477183    0.840939     0.004307
NI3866   NI        0.663302    0.409532    0.869481     0.004307
NI3867   NI        0.657528    0.445421    0.842847     0.004307
NI3868   NI        0.700240    0.389091    0.845914     0.004307
NI3869   NI        0.690926    0.511051    0.826852     0.004307
NI3870   NI        0.226562    0.521703    0.815770     0.004307
NI3871   NI        0.243442    0.507861    0.863199     0.004307
NI3872   NI        0.260660    0.545509    0.806824     0.004307
NI3873   NI        0.295465    0.509458    0.809312     0.004307
NI3874   NI        0.294914    0.543951    0.841791     0.004307
NI3875   NI        0.339844    0.520193    0.841498     0.004307
NI3876   NI        0.335211    0.548289    0.807042     0.004307
NI3877   NI        0.384114    0.510365    0.826262     0.004307
NI3878   NI        0.381532    0.539310    0.859439     0.004307
NI3879   NI        0.414268    0.562377    0.882818     0.004307
NI3880   NI        0.419884    0.547217    0.816116     0.004307
NI3881   NI        0.458857    0.513957    0.810940     0.004307
NI3882   NI        0.432070    0.520644    0.850763     0.004307
NI3883   NI        0.498684    0.515376    0.847398     0.004307
NI3884   NI        0.490817    0.546921    0.808663     0.004307
NI3885   NI        0.531994    0.512607    0.809420     0.004307
NI3886   NI        0.547704    0.527344    0.854295     0.004307
NI3887   NI        0.595188    0.530104    0.854214     0.004307
NI3888   NI        0.570572    0.547383    0.809591     0.004307
NI3889   NI        0.614030    0.511816    0.809630     0.004307
NI3890   NI        0.576938    0.494500    0.863169     0.004307
NI3891   NI        0.650611    0.510266    0.853981     0.004307
NI3892   NI        0.651590    0.540538    0.813751     0.004307
NI3893   NI        0.678628    0.587124    0.822447     0.004307
NI3894   NI        0.259939    0.624413    0.807717     0.004307
NI3895   NI        0.295881    0.584115    0.806706     0.004307
NI3896   NI        0.339423    0.574735    0.854124     0.004307
NI3897   NI        0.336491    0.613798    0.815406     0.004307
NI3898   NI        0.373081    0.583276    0.809372     0.004307
NI3899   NI        0.359914    0.616781    0.861045     0.004307
NI3900   NI        0.461184    0.555628    0.856007     0.004307
NI3901   NI        0.411043    0.583944    0.838914     0.004307
NI3902   NI        0.456260    0.576775    0.812268     0.004307
NI3903   NI        0.459133    0.601926    0.850729     0.004307
NI3904   NI        0.512808    0.558101    0.850696     0.004307
NI3905   NI        0.495332    0.612310    0.814336     0.004307
NI3906   NI        0.530771    0.580560    0.809284     0.004307
NI3907   NI        0.538846    0.646519    0.824540     0.004307
NI3908   NI        0.572754    0.565627    0.860196     0.004307
NI3909   NI        0.582357    0.605175    0.823960     0.004307
NI3910   NI        0.610310    0.567942    0.825433     0.004307
NI3911   NI        0.654111    0.625671    0.815577     0.004307
NI3912   NI        0.385761    0.679635    0.786889     0.004307
NI3913   NI        0.380496    0.641671    0.817922     0.004307
NI3914   NI        0.460691    0.651203    0.821237     0.004307
NI3915   NI        0.408137    0.674496    0.828858     0.004307
NI3916   NI        0.540106    0.677594    0.792800     0.004307
NI3917   NI        0.377040    0.356196    0.899890     0.004307
NI3918   NI        0.459756    0.364986    0.886932     0.004307
NI3919   NI        0.501916    0.423864    0.888051     0.004307
NI3920   NI        0.385190    0.436885    0.896624     0.004307
NI3921   NI        0.400741    0.480767    0.889073     0.004307
NI3922   NI        0.442471    0.440810    0.900297     0.004307
NI3923   NI        0.513242    0.490484    0.883132     0.004307
NI3924   NI        0.538192    0.444754    0.874545     0.004307
NI3925   NI        0.466431    0.517388    0.890241     0.004307
