data_00001
_audit_creation_method   'DISCUS'

_data_chemical_name_common 'Au.cell: Pearson85'

_cell_length_a             53.1089
_cell_length_b             53.1089
_cell_length_c             53.1089
_cell_angle_alpha     90.0000
_cell_angle_beta      90.0000
_cell_angle_gamma     90.0000

_symmetry_space_group_name_H-M   'P1              '

loop_
_atom_site_label
_atom_site_symbol
_atom_site_fract_x
_atom_site_fract_y
_atom_site_fract_z
_atom_site_u_iso_or_equiv
AG1   AG        0.451863    0.273319    0.031188     0.008887
AG2   AG        0.285183    0.313922    0.033644     0.008887
AG3   AG        0.331939    0.282023    0.035429     0.008887
AG4   AG        0.371136    0.326175    0.043991     0.008887
AG5   AG        0.392269    0.273946    0.032245     0.008887
AG6   AG        0.454348    0.326269    0.053778     0.008887
AG7   AG        0.500531    0.284658    0.038833     0.008887
AG8   AG        0.532633    0.328075    0.047665     0.008887
AG9   AG        0.574011    0.297020    0.034917     0.008887
AG10   AG        0.625575    0.293846    0.067831     0.008887
AG11   AG        0.286960    0.393059    0.036345     0.008887
AG12   AG        0.324821    0.352815    0.043741     0.008887
AG13   AG        0.371559    0.395747    0.055543     0.008887
AG14   AG        0.415409    0.362117    0.060753     0.008887
AG15   AG        0.412721    0.398069    0.016515     0.008887
AG16   AG        0.464511    0.368866    0.021911     0.008887
AG17   AG        0.447425    0.406123    0.060716     0.008887
AG18   AG        0.500505    0.378261    0.063076     0.008887
AG19   AG        0.496514    0.417395    0.022812     0.008887
AG20   AG        0.537994    0.438898    0.051951     0.008887
AG21   AG        0.544769    0.386132    0.044262     0.008887
AG22   AG        0.592240    0.407512    0.036276     0.008887
AG23   AG        0.245210    0.434485    0.041948     0.008887
AG24   AG        0.288347    0.466698    0.034406     0.008887
AG25   AG        0.327505    0.430816    0.047751     0.008887
AG26   AG        0.369330    0.433440    0.013914     0.008887
AG27   AG        0.359630    0.475676    0.050298     0.008887
AG28   AG        0.402279    0.440931    0.057707     0.008887
AG29   AG        0.401293    0.479753    0.013253     0.008887
AG30   AG        0.445820    0.442924    0.017615     0.008887
AG31   AG        0.438481    0.481180    0.055329     0.008887
AG32   AG        0.484431    0.452642    0.060629     0.008887
AG33   AG        0.488572    0.477717    0.011724     0.008887
AG34   AG        0.551713    0.427548    0.000769     0.008887
AG35   AG        0.534683    0.488972    0.039395     0.008887
AG36   AG        0.584406    0.463459    0.032101     0.008887
AG37   AG        0.631060    0.503721    0.024333     0.008887
AG38   AG        0.665824    0.448447    0.041263     0.008887
AG39   AG        0.282222    0.560514    0.036994     0.008887
AG40   AG        0.318065    0.516183    0.045285     0.008887
AG41   AG        0.357500    0.559234    0.045428     0.008887
AG42   AG        0.397885    0.517907    0.051526     0.008887
AG43   AG        0.448022    0.520507    0.016364     0.008887
AG44   AG        0.472812    0.559070    0.049384     0.008887
AG45   AG        0.486802    0.506151    0.058040     0.008887
AG46   AG        0.528105    0.545208    0.039673     0.008887
AG47   AG        0.578950    0.521011    0.034772     0.008887
AG48   AG        0.613396    0.565223    0.034066     0.008887
AG49   AG        0.320792    0.601281    0.037967     0.008887
AG50   AG        0.411155    0.573495    0.039558     0.008887
AG51   AG        0.452709    0.614644    0.035308     0.008887
AG52   AG        0.508593    0.597799    0.039479     0.008887
AG53   AG        0.564332    0.589955    0.029729     0.008887
AG54   AG        0.325632    0.191720    0.106489     0.008887
AG55   AG        0.397826    0.182608    0.101366     0.008887
AG56   AG        0.434197    0.141368    0.092622     0.008887
AG57   AG        0.453178    0.190720    0.107098     0.008887
AG58   AG        0.491267    0.151285    0.100940     0.008887
AG59   AG        0.547964    0.160091    0.109038     0.008887
AG60   AG        0.589806    0.198420    0.112543     0.008887
AG61   AG        0.237970    0.268988    0.107899     0.008887
AG62   AG        0.280595    0.232386    0.109741     0.008887
AG63   AG        0.320611    0.268782    0.115886     0.008887
AG64   AG        0.367667    0.233465    0.114690     0.008887
AG65   AG        0.330565    0.232438    0.072647     0.008887
AG66   AG        0.390941    0.232246    0.064962     0.008887
AG67   AG        0.388006    0.285510    0.130181     0.008887
AG68   AG        0.418757    0.231361    0.114245     0.008887
AG69   AG        0.422204    0.276175    0.080872     0.008887
AG70   AG        0.452062    0.228433    0.069706     0.008887
AG71   AG        0.474204    0.237846    0.122186     0.008887
AG72   AG        0.511547    0.202921    0.115088     0.008887
AG73   AG        0.505722    0.241327    0.077131     0.008887
AG74   AG        0.550683    0.207098    0.074956     0.008887
AG75   AG        0.509930    0.272868    0.127126     0.008887
AG76   AG        0.552365    0.239179    0.117572     0.008887
AG77   AG        0.587318    0.254742    0.073801     0.008887
AG78   AG        0.587135    0.278541    0.120781     0.008887
AG79   AG        0.624838    0.241314    0.114517     0.008887
AG80   AG        0.665239    0.279157    0.115402     0.008887
AG81   AG        0.196366    0.306048    0.108146     0.008887
AG82   AG        0.238145    0.343231    0.109248     0.008887
AG83   AG        0.276523    0.305246    0.113675     0.008887
AG84   AG        0.240747    0.309309    0.068340     0.008887
AG85   AG        0.286100    0.269650    0.071064     0.008887
AG86   AG        0.304771    0.352877    0.120442     0.008887
AG87   AG        0.346601    0.317773    0.125374     0.008887
AG88   AG        0.319846    0.313259    0.079877     0.008887
AG89   AG        0.366093    0.279402    0.080653     0.008887
NI90   NI        0.385777    0.342479    0.140386     0.004307
AG91   AG        0.440997    0.277995    0.129630     0.008887
AG92   AG        0.415212    0.325280    0.100960     0.008887
AG93   AG        0.477130    0.283476    0.087311     0.008887
NI94   NI        0.439735    0.343770    0.140364     0.004307
AG95   AG        0.476512    0.312638    0.133913     0.008887
AG96   AG        0.501123    0.332081    0.091518     0.008887
AG97   AG        0.541606    0.283725    0.083334     0.008887
NI98   NI        0.512726    0.349855    0.139631     0.004307
AG99   AG        0.544268    0.314806    0.124645     0.008887
AG100   AG        0.595371    0.348924    0.041834     0.008887
AG101   AG        0.579151    0.320631    0.084188     0.008887
AG102   AG        0.586833    0.354028    0.127617     0.008887
AG103   AG        0.626945    0.315565    0.121668     0.008887
AG104   AG        0.627485    0.350039    0.082751     0.008887
AG105   AG        0.667059    0.353077    0.118086     0.008887
AG106   AG        0.702812    0.315010    0.114853     0.008887
AG107   AG        0.151259    0.409393    0.113482     0.008887
AG108   AG        0.164119    0.354067    0.109670     0.008887
AG109   AG        0.200152    0.351207    0.069603     0.008887
AG110   AG        0.203742    0.390989    0.110355     0.008887
AG111   AG        0.265454    0.387654    0.115789     0.008887
AG112   AG        0.239900    0.388879    0.066053     0.008887
AG113   AG        0.277630    0.352361    0.072651     0.008887
AG114   AG        0.316412    0.405300    0.131251     0.008887
NI115   NI        0.351766    0.374340    0.136355     0.004307
AG116   AG        0.326116    0.389002    0.082717     0.008887
AG117   AG        0.368320    0.354562    0.091674     0.008887
NI118   NI        0.378421    0.414217    0.139739     0.004307
NI119   NI        0.413176    0.380139    0.141881     0.004307
AG120   AG        0.406474    0.402279    0.096356     0.008887
AG121   AG        0.458246    0.362229    0.095739     0.008887
NI122   NI        0.443605    0.415429    0.137420     0.004307
NI123   NI        0.478885    0.380549    0.140909     0.004307
AG124   AG        0.482596    0.411663    0.103046     0.008887
AG125   AG        0.548923    0.357068    0.090070     0.008887
NI126   NI        0.513494    0.413211    0.145229     0.004307
NI127   NI        0.548186    0.379107    0.137864     0.004307
AG128   AG        0.536275    0.410904    0.099170     0.008887
AG129   AG        0.588975    0.390194    0.085418     0.008887
AG130   AG        0.584335    0.413670    0.139067     0.008887
AG131   AG        0.629411    0.391294    0.126608     0.008887
AG132   AG        0.633859    0.413814    0.069854     0.008887
AG133   AG        0.675632    0.375643    0.070598     0.008887
AG134   AG        0.684566    0.404701    0.118131     0.008887
AG135   AG        0.720819    0.368357    0.099486     0.008887
AG136   AG        0.741790    0.422546    0.108868     0.008887
AG137   AG        0.125671    0.482940    0.097473     0.008887
AG138   AG        0.174583    0.462861    0.105022     0.008887
AG139   AG        0.199167    0.433705    0.068662     0.008887
AG140   AG        0.222938    0.483946    0.118834     0.008887
AG141   AG        0.235018    0.434084    0.107080     0.008887
AG142   AG        0.258525    0.472845    0.078607     0.008887
AG143   AG        0.285074    0.422996    0.081481     0.008887
AG144   AG        0.286268    0.449625    0.131342     0.008887
NI145   NI        0.343715    0.446198    0.142087     0.004307
AG146   AG        0.314976    0.470989    0.086387     0.008887
AG147   AG        0.362386    0.434902    0.095436     0.008887
NI148   NI        0.374005    0.480067    0.142709     0.004307
NI149   NI        0.409526    0.449416    0.136470     0.004307
AG150   AG        0.396250    0.479626    0.097294     0.008887
AG151   AG        0.439319    0.446720    0.097528     0.008887
NI152   NI        0.446863    0.482117    0.144911     0.004307
NI153   NI        0.477899    0.448568    0.141262     0.004307
AG154   AG        0.475504    0.482652    0.103599     0.008887
AG155   AG        0.528040    0.469376    0.096957     0.008887
NI156   NI        0.515328    0.477607    0.145386     0.004307
NI157   NI        0.545319    0.444163    0.140636     0.004307
AG158   AG        0.577415    0.491668    0.080724     0.008887
AG159   AG        0.580557    0.439057    0.086650     0.008887
AG160   AG        0.583151    0.472746    0.134676     0.008887
AG161   AG        0.623816    0.438648    0.117755     0.008887
AG162   AG        0.622449    0.470245    0.069984     0.008887
AG163   AG        0.704019    0.419792    0.067926     0.008887
AG164   AG        0.671515    0.451786    0.098056     0.008887
AG165   AG        0.721390    0.470888    0.085155     0.008887
AG166   AG        0.757666    0.511315    0.089472     0.008887
AG167   AG        0.182010    0.518830    0.104617     0.008887
AG168   AG        0.221215    0.515650    0.067178     0.008887
AG169   AG        0.234538    0.534139    0.120409     0.008887
AG170   AG        0.275705    0.498406    0.126259     0.008887
AG171   AG        0.239919    0.566850    0.074796     0.008887
AG172   AG        0.276973    0.526199    0.079436     0.008887
AG173   AG        0.313303    0.534694    0.130444     0.008887
NI174   NI        0.325864    0.486116    0.135317     0.004307
AG175   AG        0.318313    0.560200    0.081964     0.008887
AG176   AG        0.349640    0.511511    0.097473     0.008887
NI177   NI        0.365967    0.533605    0.136599     0.004307
NI178   NI        0.411870    0.510509    0.136691     0.004307
AG179   AG        0.382459    0.553585    0.091294     0.008887
AG180   AG        0.434542    0.518996    0.092830     0.008887
NI181   NI        0.449035    0.541477    0.139444     0.004307
NI182   NI        0.480985    0.510471    0.143181     0.004307
AG183   AG        0.482311    0.540106    0.098697     0.008887
AG184   AG        0.528742    0.518243    0.088027     0.008887
NI185   NI        0.510880    0.545043    0.138825     0.004307
NI186   NI        0.547106    0.510116    0.139716     0.004307
AG187   AG        0.574869    0.557946    0.077025     0.008887
AG188   AG        0.618622    0.526502    0.074266     0.008887
AG189   AG        0.592531    0.519979    0.121993     0.008887
AG190   AG        0.635010    0.485923    0.119753     0.008887
AG191   AG        0.653698    0.575274    0.071357     0.008887
AG192   AG        0.670952    0.500607    0.071258     0.008887
AG193   AG        0.656350    0.536035    0.111751     0.008887
AG194   AG        0.704541    0.502185    0.119343     0.008887
AG195   AG        0.196194    0.574131    0.114205     0.008887
AG196   AG        0.235380    0.610432    0.115685     0.008887
AG197   AG        0.275478    0.571643    0.123156     0.008887
AG198   AG        0.279431    0.603673    0.077668     0.008887
AG199   AG        0.310894    0.617330    0.118925     0.008887
AG200   AG        0.345366    0.577718    0.128153     0.008887
AG201   AG        0.315366    0.648982    0.073598     0.008887
AG202   AG        0.355604    0.607665    0.083515     0.008887
AG203   AG        0.384548    0.613176    0.125483     0.008887
AG204   AG        0.408205    0.565864    0.133626     0.008887
AG205   AG        0.407806    0.615518    0.072535     0.008887
AG206   AG        0.437684    0.571961    0.089814     0.008887
AG207   AG        0.433364    0.616517    0.125889     0.008887
AG208   AG        0.478351    0.583347    0.134693     0.008887
AG209   AG        0.478747    0.608403    0.083945     0.008887
AG210   AG        0.519394    0.571647    0.083996     0.008887
AG211   AG        0.523112    0.606602    0.121021     0.008887
AG212   AG        0.555427    0.564808    0.125787     0.008887
AG213   AG        0.548810    0.619921    0.074475     0.008887
AG214   AG        0.604285    0.602996    0.071436     0.008887
AG215   AG        0.574355    0.612698    0.118280     0.008887
AG216   AG        0.613505    0.570752    0.112248     0.008887
AG217   AG        0.651618    0.613859    0.118026     0.008887
AG218   AG        0.692086    0.577303    0.114805     0.008887
AG219   AG        0.269893    0.652020    0.112934     0.008887
AG220   AG        0.311158    0.691328    0.112374     0.008887
AG221   AG        0.349447    0.653092    0.117055     0.008887
AG222   AG        0.368537    0.656055    0.059030     0.008887
AG223   AG        0.363643    0.704720    0.096295     0.008887
AG224   AG        0.399320    0.657941    0.106019     0.008887
AG225   AG        0.449138    0.655162    0.070983     0.008887
AG226   AG        0.445571    0.683779    0.117063     0.008887
AG227   AG        0.481234    0.639924    0.128798     0.008887
AG228   AG        0.506280    0.662206    0.067355     0.008887
AG229   AG        0.498144    0.692249    0.111169     0.008887
AG230   AG        0.541269    0.656888    0.113493     0.008887
AG231   AG        0.576886    0.698836    0.106307     0.008887
AG232   AG        0.610613    0.655661    0.119819     0.008887
AG233   AG        0.414084    0.729566    0.104491     0.008887
AG234   AG        0.475148    0.739004    0.094112     0.008887
AG235   AG        0.319255    0.107406    0.178667     0.008887
AG236   AG        0.390569    0.099305    0.173748     0.008887
AG237   AG        0.428688    0.096641    0.132321     0.008887
AG238   AG        0.443476    0.108578    0.183851     0.008887
AG239   AG        0.486998    0.106282    0.140099     0.008887
AG240   AG        0.523839    0.113348    0.183543     0.008887
AG241   AG        0.582328    0.116302    0.191364     0.008887
AG242   AG        0.243862    0.190554    0.188809     0.008887
AG243   AG        0.283732    0.148669    0.182800     0.008887
AG244   AG        0.284959    0.191381    0.147333     0.008887
AG245   AG        0.323954    0.153472    0.145543     0.008887
AG246   AG        0.324912    0.190323    0.187393     0.008887
AG247   AG        0.362125    0.147109    0.181065     0.008887
AG248   AG        0.367497    0.186739    0.146914     0.008887
AG249   AG        0.398363    0.141356    0.139660     0.008887
AG250   AG        0.377799    0.201227    0.200183     0.008887
AG251   AG        0.413082    0.154866    0.194397     0.008887
AG252   AG        0.416694    0.191796    0.152776     0.008887
AG253   AG        0.447007    0.149798    0.144696     0.008887
AG254   AG        0.441200    0.200882    0.202271     0.008887
AG255   AG        0.479242    0.152093    0.192367     0.008887
AG256   AG        0.474885    0.194332    0.157652     0.008887
AG257   AG        0.511498    0.156382    0.149680     0.008887
AG258   AG        0.510991    0.200742    0.198923     0.008887
AG259   AG        0.549118    0.160694    0.192785     0.008887
AG260   AG        0.545772    0.196872    0.153429     0.008887
AG261   AG        0.588033    0.159848    0.151780     0.008887
AG262   AG        0.582300    0.201832    0.196980     0.008887
AG263   AG        0.621484    0.162655    0.197307     0.008887
AG264   AG        0.624402    0.199789    0.155557     0.008887
AG265   AG        0.663353    0.196565    0.197451     0.008887
AG266   AG        0.163761    0.266342    0.191102     0.008887
AG267   AG        0.206138    0.230426    0.194531     0.008887
AG268   AG        0.199427    0.267081    0.149886     0.008887
AG269   AG        0.239157    0.227505    0.149482     0.008887
AG270   AG        0.245446    0.268300    0.194817     0.008887
AG271   AG        0.290586    0.232257    0.192008     0.008887
AG272   AG        0.282430    0.268169    0.155259     0.008887
AG273   AG        0.325062    0.227551    0.147477     0.008887
NI274   NI        0.311072    0.276751    0.205560     0.004307
NI275   NI        0.343151    0.241326    0.203612     0.004307
AG276   AG        0.341611    0.275725    0.164436     0.008887
AG277   AG        0.385822    0.239683    0.162470     0.008887
NI278   NI        0.377818    0.275385    0.208227     0.004307
NI279   NI        0.410173    0.243505    0.205849     0.004307
NI280   NI        0.412545    0.278059    0.172316     0.004307
AG281   AG        0.444152    0.242902    0.167063     0.008887
NI282   NI        0.447266    0.275850    0.204783     0.004307
NI283   NI        0.480233    0.238513    0.203602     0.004307
NI284   NI        0.480252    0.279121    0.170840     0.004307
AG285   AG        0.510830    0.236711    0.163174     0.008887
NI286   NI        0.511393    0.276037    0.205178     0.004307
NI287   NI        0.548520    0.240141    0.204228     0.004307
AG288   AG        0.547618    0.273382    0.166928     0.008887
AG289   AG        0.587266    0.238564    0.157930     0.008887
NI290   NI        0.583479    0.272213    0.201018     0.004307
AG291   AG        0.621762    0.237452    0.198703     0.008887
AG292   AG        0.626414    0.279417    0.158651     0.008887
AG293   AG        0.662254    0.237857    0.158835     0.008887
AG294   AG        0.664511    0.276160    0.201791     0.008887
AG295   AG        0.703302    0.235686    0.195112     0.008887
AG296   AG        0.705272    0.277894    0.157324     0.008887
AG297   AG        0.743611    0.277725    0.199097     0.008887
AG298   AG        0.123389    0.303039    0.188627     0.008887
AG299   AG        0.161556    0.308115    0.150352     0.008887
AG300   AG        0.162402    0.346378    0.194581     0.008887
AG301   AG        0.206276    0.304954    0.191429     0.008887
AG302   AG        0.202055    0.344796    0.154231     0.008887
AG303   AG        0.241316    0.303070    0.151954     0.008887
NI304   NI        0.241328    0.345781    0.202119     0.004307
NI305   NI        0.275689    0.309484    0.202671     0.004307
AG306   AG        0.267363    0.354118    0.161567     0.008887
AG307   AG        0.304780    0.316548    0.163872     0.008887
NI308   NI        0.311135    0.343207    0.204745     0.004307
NI309   NI        0.343044    0.308688    0.204555     0.004307
NI310   NI        0.348078    0.344349    0.174445     0.004307
NI311   NI        0.378673    0.309729    0.175619     0.004307
NI312   NI        0.379386    0.346070    0.210254     0.004307
NI313   NI        0.411646    0.309813    0.207199     0.004307
NI314   NI        0.414411    0.344730    0.178541     0.004307
NI315   NI        0.445388    0.309575    0.173767     0.004307
NI316   NI        0.447228    0.342829    0.209603     0.004307
NI317   NI        0.478994    0.309929    0.207453     0.004307
NI318   NI        0.478570    0.345752    0.173454     0.004307
NI319   NI        0.513939    0.310481    0.170765     0.004307
NI320   NI        0.510307    0.342853    0.208037     0.004307
NI321   NI        0.550449    0.309841    0.205730     0.004307
NI322   NI        0.547051    0.343228    0.176017     0.004307
AG323   AG        0.584458    0.311948    0.167120     0.008887
NI324   NI        0.584894    0.345874    0.208570     0.004307
NI325   NI        0.618282    0.307746    0.207201     0.004307
AG326   AG        0.623052    0.348198    0.165409     0.008887
AG327   AG        0.667627    0.315818    0.159502     0.008887
NI328   NI        0.651548    0.345416    0.206719     0.004307
AG329   AG        0.701672    0.317576    0.198109     0.008887
AG330   AG        0.706822    0.356568    0.153891     0.008887
AG331   AG        0.743003    0.316318    0.157017     0.008887
AG332   AG        0.738485    0.354899    0.199751     0.008887
AG333   AG        0.783934    0.318530    0.195522     0.008887
AG334   AG        0.121336    0.348211    0.159415     0.008887
AG335   AG        0.114522    0.406484    0.154341     0.008887
AG336   AG        0.164922    0.385271    0.157809     0.008887
AG337   AG        0.152548    0.423810    0.190456     0.008887
AG338   AG        0.204617    0.376158    0.201934     0.008887
AG339   AG        0.192636    0.432925    0.145504     0.008887
AG340   AG        0.227807    0.392643    0.157519     0.008887
NI341   NI        0.243403    0.412145    0.204660     0.004307
NI342   NI        0.275561    0.375992    0.207370     0.004307
NI343   NI        0.280278    0.404434    0.172167     0.004307
NI344   NI        0.319811    0.375648    0.170765     0.004307
NI345   NI        0.307909    0.408349    0.205798     0.004307
NI346   NI        0.345717    0.378064    0.209418     0.004307
NI347   NI        0.346588    0.412189    0.172592     0.004307
NI348   NI        0.378132    0.379509    0.174185     0.004307
NI349   NI        0.377850    0.411832    0.207775     0.004307
NI350   NI        0.411749    0.379164    0.208125     0.004307
NI351   NI        0.413747    0.411787    0.174181     0.004307
NI352   NI        0.445718    0.379790    0.174973     0.004307
NI353   NI        0.446073    0.410737    0.209840     0.004307
NI354   NI        0.479289    0.376877    0.208488     0.004307
NI355   NI        0.478923    0.414901    0.174494     0.004307
NI356   NI        0.513324    0.379529    0.176200     0.004307
NI357   NI        0.511443    0.410231    0.209993     0.004307
NI358   NI        0.547242    0.377800    0.209118     0.004307
NI359   NI        0.550610    0.411166    0.176542     0.004307
NI360   NI        0.582226    0.377983    0.175317     0.004307
NI361   NI        0.583727    0.411571    0.209396     0.004307
NI362   NI        0.618196    0.378742    0.207340     0.004307
NI363   NI        0.615669    0.410915    0.175621     0.004307
AG364   AG        0.658675    0.385131    0.168244     0.008887
NI365   NI        0.651545    0.412214    0.209682     0.004307
AG366   AG        0.693065    0.375800    0.208940     0.008887
AG367   AG        0.709948    0.407893    0.166265     0.008887
AG368   AG        0.753576    0.383144    0.145593     0.008887
AG369   AG        0.747204    0.444641    0.179429     0.008887
AG370   AG        0.787166    0.390378    0.189436     0.008887
AG371   AG        0.789240    0.427113    0.145948     0.008887
AG372   AG        0.107224    0.451287    0.188098     0.008887
AG373   AG        0.094339    0.480507    0.144357     0.008887
AG374   AG        0.142176    0.454142    0.146654     0.008887
AG375   AG        0.151363    0.478958    0.195223     0.008887
AG376   AG        0.201986    0.443093    0.198988     0.008887
AG377   AG        0.188974    0.479958    0.158505     0.008887
AG378   AG        0.241818    0.440812    0.163195     0.008887
NI379   NI        0.240506    0.477263    0.208171     0.004307
NI380   NI        0.275827    0.444123    0.206801     0.004307
NI381   NI        0.276258    0.476158    0.173823     0.004307
NI382   NI        0.310549    0.442077    0.174147     0.004307
NI383   NI        0.309637    0.478406    0.206997     0.004307
NI384   NI        0.343965    0.443453    0.205363     0.004307
NI385   NI        0.345379    0.478596    0.177171     0.004307
NI386   NI        0.381585    0.444793    0.175796     0.004307
NI387   NI        0.378811    0.478816    0.208272     0.004307
NI388   NI        0.412981    0.443681    0.210376     0.004307
NI389   NI        0.410287    0.478904    0.173547     0.004307
NI390   NI        0.444636    0.445258    0.175369     0.004307
NI391   NI        0.443151    0.478960    0.209173     0.004307
NI392   NI        0.478545    0.444963    0.210457     0.004307
NI393   NI        0.481712    0.477665    0.177828     0.004307
NI394   NI        0.514777    0.444969    0.177903     0.004307
NI395   NI        0.513432    0.478815    0.212872     0.004307
NI396   NI        0.547587    0.444434    0.210503     0.004307
NI397   NI        0.549236    0.479337    0.176159     0.004307
NI398   NI        0.583427    0.448115    0.177769     0.004307
NI399   NI        0.581304    0.477985    0.210672     0.004307
NI400   NI        0.616678    0.444572    0.208603     0.004307
NI401   NI        0.619218    0.479196    0.172296     0.004307
AG402   AG        0.654078    0.436992    0.160491     0.008887
NI403   NI        0.649352    0.476497    0.207711     0.004307
AG404   AG        0.688796    0.446580    0.201114     0.008887
AG405   AG        0.707726    0.451186    0.139881     0.008887
AG406   AG        0.755245    0.475428    0.129913     0.008887
AG407   AG        0.729709    0.492964    0.177054     0.008887
AG408   AG        0.791704    0.478945    0.169502     0.008887
AG409   AG        0.795336    0.515103    0.127576     0.008887
AG410   AG        0.104064    0.509626    0.189482     0.008887
AG411   AG        0.143757    0.508129    0.143863     0.008887
AG412   AG        0.154619    0.535736    0.189836     0.008887
AG413   AG        0.202780    0.512878    0.206568     0.008887
AG414   AG        0.193105    0.533945    0.154241     0.008887
AG415   AG        0.235945    0.502519    0.166734     0.008887
NI416   NI        0.240791    0.549334    0.206272     0.004307
NI417   NI        0.275795    0.510450    0.205145     0.004307
AG418   AG        0.273283    0.540442    0.165597     0.008887
NI419   NI        0.312405    0.510213    0.173149     0.004307
NI420   NI        0.309470    0.546351    0.208450     0.004307
NI421   NI        0.344022    0.511661    0.210266     0.004307
NI422   NI        0.343845    0.544478    0.175244     0.004307
NI423   NI        0.377767    0.511341    0.175402     0.004307
NI424   NI        0.376381    0.544126    0.208742     0.004307
NI425   NI        0.411961    0.512527    0.209208     0.004307
NI426   NI        0.409614    0.544845    0.175464     0.004307
NI427   NI        0.443546    0.512937    0.176820     0.004307
NI428   NI        0.445160    0.546041    0.208429     0.004307
NI429   NI        0.479070    0.510152    0.211508     0.004307
NI430   NI        0.479049    0.543151    0.177209     0.004307
NI431   NI        0.513815    0.512806    0.177636     0.004307
NI432   NI        0.512052    0.547455    0.209835     0.004307
NI433   NI        0.546144    0.512499    0.210299     0.004307
NI434   NI        0.547956    0.544459    0.174842     0.004307
NI435   NI        0.582782    0.511451    0.175334     0.004307
NI436   NI        0.580396    0.545105    0.210296     0.004307
NI437   NI        0.615182    0.510843    0.207764     0.004307
AG438   AG        0.630684    0.523956    0.159078     0.008887
AG439   AG        0.668388    0.484056    0.160914     0.008887
NI440   NI        0.645010    0.545918    0.202805     0.004307
AG441   AG        0.682209    0.512564    0.203546     0.008887
AG442   AG        0.689169    0.540175    0.156604     0.008887
AG443   AG        0.744140    0.535309    0.139571     0.008887
AG444   AG        0.727834    0.545025    0.195532     0.008887
AG445   AG        0.777727    0.530139    0.178276     0.008887
AG446   AG        0.118088    0.577648    0.189015     0.008887
AG447   AG        0.156316    0.575748    0.152385     0.008887
AG448   AG        0.156940    0.616345    0.190030     0.008887
AG449   AG        0.197958    0.572742    0.195265     0.008887
AG450   AG        0.195562    0.613847    0.152400     0.008887
AG451   AG        0.233543    0.574251    0.158037     0.008887
AG452   AG        0.234721    0.614946    0.194725     0.008887
NI453   NI        0.275463    0.582591    0.205655     0.004307
AG454   AG        0.272372    0.614653    0.155633     0.008887
AG455   AG        0.309542    0.579212    0.168867     0.008887
NI456   NI        0.312604    0.615280    0.206998     0.004307
NI457   NI        0.344502    0.578678    0.209486     0.004307
AG458   AG        0.347026    0.614965    0.165858     0.008887
NI459   NI        0.376943    0.575340    0.172061     0.004307
NI460   NI        0.376132    0.612109    0.205034     0.004307
NI461   NI        0.409412    0.579421    0.205651     0.004307
NI462   NI        0.408542    0.608011    0.170179     0.004307
NI463   NI        0.444438    0.577613    0.171954     0.004307
NI464   NI        0.445237    0.615918    0.207978     0.004307
NI465   NI        0.479799    0.580925    0.207224     0.004307
NI466   NI        0.477239    0.614087    0.173593     0.004307
NI467   NI        0.511423    0.577760    0.174111     0.004307
NI468   NI        0.514013    0.612416    0.206106     0.004307
NI469   NI        0.548071    0.581543    0.208957     0.004307
AG470   AG        0.555353    0.602204    0.165031     0.008887
AG471   AG        0.593494    0.562168    0.164040     0.008887
NI472   NI        0.581695    0.611898    0.208614     0.004307
NI473   NI        0.611605    0.579456    0.207330     0.004307
AG474   AG        0.609641    0.612936    0.157702     0.008887
AG475   AG        0.648169    0.572900    0.159899     0.008887
AG476   AG        0.644479    0.614582    0.197636     0.008887
AG477   AG        0.686228    0.579036    0.197686     0.008887
AG478   AG        0.689326    0.615758    0.156497     0.008887
AG479   AG        0.730007    0.581170    0.156283     0.008887
AG480   AG        0.724148    0.617481    0.198045     0.008887
AG481   AG        0.769190    0.581671    0.192984     0.008887
AG482   AG        0.196430    0.655692    0.191492     0.008887
AG483   AG        0.233575    0.653389    0.152052     0.008887
AG484   AG        0.236873    0.689940    0.195348     0.008887
AG485   AG        0.276561    0.652154    0.195684     0.008887
AG486   AG        0.272463    0.693229    0.154696     0.008887
AG487   AG        0.310605    0.655023    0.154963     0.008887
AG488   AG        0.315422    0.690116    0.197875     0.008887
NI489   NI        0.347310    0.650904    0.205066     0.004307
AG490   AG        0.350001    0.690136    0.155800     0.008887
AG491   AG        0.387923    0.650264    0.160814     0.008887
AG492   AG        0.384253    0.684343    0.199329     0.008887
NI493   NI        0.409015    0.644958    0.209239     0.004307
AG494   AG        0.401605    0.698347    0.144613     0.008887
AG495   AG        0.438937    0.647496    0.167222     0.008887
AG496   AG        0.438470    0.687308    0.200930     0.008887
NI497   NI        0.480569    0.648406    0.204507     0.004307
AG498   AG        0.479274    0.682475    0.164087     0.008887
AG499   AG        0.522439    0.641314    0.165959     0.008887
AG500   AG        0.520014    0.682792    0.199663     0.008887
NI501   NI        0.551738    0.644410    0.205022     0.004307
AG502   AG        0.539807    0.694893    0.150993     0.008887
AG503   AG        0.570330    0.653093    0.158456     0.008887
AG504   AG        0.569927    0.693235    0.197179     0.008887
AG505   AG        0.606458    0.655254    0.196462     0.008887
AG506   AG        0.607253    0.697404    0.154296     0.008887
AG507   AG        0.649669    0.655350    0.156113     0.008887
AG508   AG        0.647181    0.695422    0.193172     0.008887
AG509   AG        0.682963    0.653981    0.197740     0.008887
AG510   AG        0.277266    0.729168    0.192381     0.008887
AG511   AG        0.314948    0.732407    0.150302     0.008887
AG512   AG        0.314216    0.770105    0.193406     0.008887
AG513   AG        0.353422    0.728721    0.191553     0.008887
AG514   AG        0.364964    0.739785    0.140451     0.008887
AG515   AG        0.373674    0.781293    0.178407     0.008887
AG516   AG        0.410130    0.731199    0.187322     0.008887
AG517   AG        0.413699    0.770416    0.142559     0.008887
AG518   AG        0.451227    0.727540    0.149465     0.008887
AG519   AG        0.453055    0.769159    0.182912     0.008887
AG520   AG        0.479231    0.722268    0.197165     0.008887
AG521   AG        0.470014    0.781135    0.135100     0.008887
AG522   AG        0.500384    0.733164    0.150257     0.008887
AG523   AG        0.505892    0.781133    0.178319     0.008887
AG524   AG        0.535788    0.736580    0.192870     0.008887
AG525   AG        0.571097    0.741481    0.148485     0.008887
AG526   AG        0.571077    0.779878    0.190454     0.008887
AG527   AG        0.606540    0.735683    0.192363     0.008887
AG528   AG        0.451234    0.029132    0.258595     0.008887
AG529   AG        0.252046    0.107157    0.265986     0.008887
AG530   AG        0.288626    0.107246    0.224087     0.008887
AG531   AG        0.323140    0.110630    0.266954     0.008887
AG532   AG        0.357993    0.069222    0.262851     0.008887
AG533   AG        0.355884    0.106872    0.221755     0.008887
AG534   AG        0.378244    0.057967    0.215729     0.008887
AG535   AG        0.378786    0.125322    0.268811     0.008887
AG536   AG        0.408143    0.071765    0.262674     0.008887
AG537   AG        0.408588    0.112845    0.224959     0.008887
AG538   AG        0.444943    0.066723    0.218567     0.008887
AG539   AG        0.447088    0.115639    0.264856     0.008887
AG540   AG        0.483861    0.071709    0.264676     0.008887
AG541   AG        0.481891    0.106364    0.220430     0.008887
AG542   AG        0.523990    0.074070    0.221996     0.008887
AG543   AG        0.505691    0.125987    0.267313     0.008887
AG544   AG        0.578008    0.079930    0.235040     0.008887
AG545   AG        0.546318    0.123686    0.233016     0.008887
AG546   AG        0.581518    0.113979    0.276525     0.008887
AG547   AG        0.620758    0.116455    0.237396     0.008887
AG548   AG        0.662352    0.120210    0.275793     0.008887
AG549   AG        0.170209    0.188538    0.265614     0.008887
AG550   AG        0.214524    0.148277    0.263555     0.008887
AG551   AG        0.207938    0.190854    0.229752     0.008887
AG552   AG        0.251343    0.150688    0.225652     0.008887
AG553   AG        0.249766    0.190697    0.268026     0.008887
AG554   AG        0.288282    0.148814    0.263407     0.008887
AG555   AG        0.286997    0.193006    0.226795     0.008887
AG556   AG        0.324583    0.148844    0.221894     0.008887
NI557   NI        0.307718    0.203576    0.272292     0.004307
AG558   AG        0.340242    0.164800    0.274189     0.008887
NI559   NI        0.341481    0.204228    0.239189     0.004307
AG560   AG        0.375350    0.163040    0.234993     0.008887
NI561   NI        0.376976    0.203763    0.273561     0.004307
NI562   NI        0.411075    0.171633    0.273488     0.004307
NI563   NI        0.410473    0.204350    0.239101     0.004307
AG564   AG        0.447143    0.160311    0.236806     0.008887
NI565   NI        0.444198    0.205691    0.275209     0.004307
NI566   NI        0.476597    0.171646    0.276373     0.004307
NI567   NI        0.476800    0.204286    0.239221     0.004307
AG568   AG        0.510207    0.162352    0.233374     0.008887
NI569   NI        0.511184    0.204481    0.273738     0.004307
AG570   AG        0.546165    0.164595    0.269360     0.008887
NI571   NI        0.546384    0.199815    0.236096     0.004307
AG572   AG        0.585573    0.161452    0.235827     0.008887
NI573   NI        0.583741    0.201946    0.273893     0.004307
AG574   AG        0.624029    0.160998    0.275869     0.008887
AG575   AG        0.620293    0.203127    0.237584     0.008887
AG576   AG        0.662133    0.159947    0.238088     0.008887
AG577   AG        0.661351    0.201482    0.276164     0.008887
AG578   AG        0.700148    0.162514    0.274779     0.008887
AG579   AG        0.706661    0.201243    0.235980     0.008887
AG580   AG        0.739764    0.200849    0.281578     0.008887
AG581   AG        0.125399    0.226851    0.271870     0.008887
AG582   AG        0.121472    0.263159    0.232119     0.008887
AG583   AG        0.166721    0.228640    0.230388     0.008887
AG584   AG        0.168721    0.265054    0.269160     0.008887
AG585   AG        0.211672    0.232064    0.266045     0.008887
AG586   AG        0.206678    0.272093    0.232307     0.008887
AG587   AG        0.249028    0.229962    0.230053     0.008887
NI588   NI        0.245031    0.270639    0.270426     0.004307
NI589   NI        0.277131    0.237162    0.272302     0.004307
NI590   NI        0.278457    0.271905    0.240278     0.004307
NI591   NI        0.309910    0.238314    0.239870     0.004307
NI592   NI        0.311079    0.271589    0.274266     0.004307
NI593   NI        0.344632    0.237553    0.273844     0.004307
NI594   NI        0.342707    0.272294    0.239859     0.004307
NI595   NI        0.375723    0.237372    0.237017     0.004307
NI596   NI        0.377763    0.273070    0.273998     0.004307
NI597   NI        0.406850    0.236837    0.273174     0.004307
NI598   NI        0.410910    0.274511    0.241036     0.004307
NI599   NI        0.444632    0.236734    0.239658     0.004307
NI600   NI        0.442877    0.270383    0.272441     0.004307
NI601   NI        0.479265    0.238624    0.272005     0.004307
NI602   NI        0.477848    0.274275    0.238648     0.004307
NI603   NI        0.509000    0.238344    0.238650     0.004307
NI604   NI        0.514031    0.273025    0.270346     0.004307
NI605   NI        0.550789    0.237809    0.270044     0.004307
NI606   NI        0.551042    0.274011    0.238799     0.004307
NI607   NI        0.583445    0.238340    0.237398     0.004307
NI608   NI        0.586742    0.271887    0.271669     0.004307
NI609   NI        0.620158    0.239358    0.273748     0.004307
NI610   NI        0.619152    0.274122    0.236922     0.004307
AG611   AG        0.660057    0.237106    0.238183     0.008887
NI612   NI        0.650402    0.275314    0.271570     0.004307
AG613   AG        0.701189    0.238753    0.278734     0.008887
AG614   AG        0.701902    0.276747    0.238530     0.008887
AG615   AG        0.739329    0.238706    0.239613     0.008887
AG616   AG        0.735104    0.281510    0.280092     0.008887
AG617   AG        0.777472    0.240293    0.274541     0.008887
AG618   AG        0.775709    0.282665    0.241068     0.008887
AG619   AG        0.081775    0.301327    0.230530     0.008887
AG620   AG        0.126769    0.306843    0.269895     0.008887
AG621   AG        0.119127    0.341604    0.227002     0.008887
AG622   AG        0.167603    0.307421    0.228254     0.008887
AG623   AG        0.167798    0.345675    0.265152     0.008887
NI624   NI        0.207554    0.306205    0.269660     0.004307
NI625   NI        0.206999    0.341148    0.238351     0.004307
NI626   NI        0.244012    0.308113    0.236990     0.004307
NI627   NI        0.240607    0.340526    0.271482     0.004307
NI628   NI        0.276015    0.307301    0.271225     0.004307
NI629   NI        0.276484    0.341556    0.238505     0.004307
NI630   NI        0.311932    0.308268    0.238854     0.004307
NI631   NI        0.310194    0.338935    0.272959     0.004307
NI632   NI        0.344639    0.305843    0.272982     0.004307
NI633   NI        0.345051    0.340443    0.239640     0.004307
NI634   NI        0.379140    0.306848    0.238736     0.004307
NI635   NI        0.376672    0.342222    0.274943     0.004307
NI636   NI        0.411357    0.308735    0.273244     0.004307
NI637   NI        0.409617    0.342486    0.242606     0.004307
NI638   NI        0.444763    0.307476    0.239615     0.004307
NI639   NI        0.445084    0.339754    0.273686     0.004307
NI640   NI        0.478532    0.306921    0.274846     0.004307
NI641   NI        0.478761    0.343055    0.242689     0.004307
NI642   NI        0.511512    0.309861    0.239804     0.004307
NI643   NI        0.515363    0.338484    0.274851     0.004307
NI644   NI        0.549696    0.307717    0.272667     0.004307
NI645   NI        0.549725    0.342270    0.242266     0.004307
NI646   NI        0.584003    0.307990    0.239152     0.004307
NI647   NI        0.584554    0.340881    0.273199     0.004307
NI648   NI        0.619095    0.308592    0.273598     0.004307
NI649   NI        0.620219    0.342993    0.240486     0.004307
NI650   NI        0.654146    0.308860    0.236502     0.004307
NI651   NI        0.653175    0.344306    0.272583     0.004307
NI652   NI        0.689383    0.308257    0.274403     0.004307
NI653   NI        0.686726    0.340851    0.243027     0.004307
AG654   AG        0.733668    0.319849    0.241408     0.008887
AG655   AG        0.728914    0.374246    0.253689     0.008887
AG656   AG        0.774724    0.320305    0.281702     0.008887
AG657   AG        0.778550    0.355752    0.237021     0.008887
AG658   AG        0.820163    0.348020    0.268025     0.008887
AG659   AG        0.074309    0.346864    0.194151     0.008887
AG660   AG        0.075522    0.389461    0.231976     0.008887
AG661   AG        0.124526    0.379411    0.266336     0.008887
AG662   AG        0.117885    0.383372    0.199937     0.008887
AG663   AG        0.164102    0.388582    0.230834     0.008887
NI664   NI        0.174815    0.411153    0.276508     0.004307
NI665   NI        0.207511    0.376616    0.271947     0.004307
NI666   NI        0.208331    0.410959    0.238051     0.004307
NI667   NI        0.241488    0.377318    0.238217     0.004307
NI668   NI        0.242093    0.410682    0.274468     0.004307
NI669   NI        0.276301    0.376182    0.273684     0.004307
NI670   NI        0.273828    0.411182    0.241168     0.004307
NI671   NI        0.310826    0.375054    0.239768     0.004307
NI672   NI        0.309175    0.408888    0.275627     0.004307
NI673   NI        0.341494    0.373820    0.273943     0.004307
NI674   NI        0.345130    0.410744    0.243911     0.004307
NI675   NI        0.377442    0.378556    0.242997     0.004307
NI676   NI        0.378029    0.405049    0.279238     0.004307
NI677   NI        0.412457    0.373976    0.277517     0.004307
NI678   NI        0.409682    0.410999    0.243898     0.004307
NI679   NI        0.444305    0.378235    0.242452     0.004307
NI680   NI        0.443605    0.410541    0.278534     0.004307
NI681   NI        0.479030    0.372256    0.275638     0.004307
NI682   NI        0.478519    0.410405    0.243875     0.004307
NI683   NI        0.513905    0.374221    0.242114     0.004307
NI684   NI        0.512279    0.410424    0.274670     0.004307
NI685   NI        0.549638    0.374988    0.276097     0.004307
NI686   NI        0.548018    0.409078    0.242873     0.004307
NI687   NI        0.583546    0.375703    0.244402     0.004307
NI688   NI        0.581786    0.411372    0.276529     0.004307
NI689   NI        0.617407    0.376001    0.273576     0.004307
NI690   NI        0.614472    0.412690    0.242114     0.004307
NI691   NI        0.651386    0.378696    0.239794     0.004307
NI692   NI        0.650070    0.411870    0.275394     0.004307
NI693   NI        0.683826    0.379193    0.273482     0.004307
NI694   NI        0.684636    0.412671    0.240514     0.004307
AG695   AG        0.734249    0.409037    0.216085     0.008887
NI696   NI        0.718344    0.413776    0.276521     0.004307
AG697   AG        0.772777    0.407231    0.254808     0.008887
AG698   AG        0.788721    0.440422    0.212749     0.008887
AG699   AG        0.820133    0.390690    0.237600     0.008887
AG700   AG        0.825309    0.443794    0.253255     0.008887
AG701   AG        0.037081    0.444094    0.273507     0.008887
AG702   AG        0.071703    0.446297    0.230894     0.008887
AG703   AG        0.083222    0.475949    0.282661     0.008887
AG704   AG        0.119998    0.421450    0.238909     0.008887
AG705   AG        0.117848    0.478132    0.238982     0.008887
AG706   AG        0.167388    0.447253    0.239977     0.008887
NI707   NI        0.175002    0.477212    0.279235     0.004307
NI708   NI        0.208893    0.443123    0.274910     0.004307
NI709   NI        0.208793    0.476790    0.243924     0.004307
NI710   NI        0.242827    0.445035    0.242393     0.004307
NI711   NI        0.242873    0.476807    0.276598     0.004307
NI712   NI        0.276041    0.442264    0.276864     0.004307
NI713   NI        0.274951    0.478332    0.240476     0.004307
NI714   NI        0.307249    0.443779    0.238697     0.004307
NI715   NI        0.309904    0.477858    0.273714     0.004307
NI716   NI        0.341828    0.444049    0.274635     0.004307
NI717   NI        0.342761    0.477475    0.240918     0.004307
NI718   NI        0.376360    0.444653    0.239254     0.004307
NI719   NI        0.376362    0.476436    0.277661     0.004307
NI720   NI        0.410410    0.443193    0.278425     0.004307
NI721   NI        0.411134    0.478870    0.246593     0.004307
NI722   NI        0.445298    0.445395    0.243900     0.004307
NI723   NI        0.444899    0.478506    0.276343     0.004307
NI724   NI        0.479838    0.443304    0.276413     0.004307
NI725   NI        0.479081    0.479188    0.243492     0.004307
NI726   NI        0.514710    0.443333    0.242701     0.004307
NI727   NI        0.511711    0.477549    0.276255     0.004307
NI728   NI        0.548362    0.443056    0.276712     0.004307
NI729   NI        0.547066    0.476746    0.244034     0.004307
NI730   NI        0.581250    0.444195    0.242452     0.004307
NI731   NI        0.580992    0.479116    0.276891     0.004307
NI732   NI        0.613342    0.448377    0.277182     0.004307
NI733   NI        0.614003    0.479844    0.240821     0.004307
NI734   NI        0.649182    0.443956    0.242033     0.004307
NI735   NI        0.649449    0.477381    0.277195     0.004307
NI736   NI        0.683505    0.445030    0.275566     0.004307
NI737   NI        0.682942    0.478458    0.241903     0.004307
AG738   AG        0.728118    0.454169    0.236134     0.008887
NI739   NI        0.718350    0.482198    0.277128     0.004307
AG740   AG        0.771101    0.455510    0.265487     0.008887
AG741   AG        0.775450    0.489495    0.221486     0.008887
AG742   AG        0.829714    0.476107    0.208895     0.008887
AG743   AG        0.814281    0.495438    0.262072     0.008887
AG744   AG        0.870529    0.475257    0.250515     0.008887
AG745   AG        0.068424    0.503419    0.231271     0.008887
AG746   AG        0.084313    0.534436    0.274767     0.008887
AG747   AG        0.129840    0.505877    0.284653     0.008887
AG748   AG        0.117386    0.535281    0.233493     0.008887
AG749   AG        0.165894    0.505413    0.244042     0.008887
AG750   AG        0.166837    0.547245    0.273792     0.008887
NI751   NI        0.204385    0.512653    0.276132     0.004307
NI752   NI        0.206487    0.548406    0.242966     0.004307
NI753   NI        0.241629    0.512449    0.240487     0.004307
NI754   NI        0.240121    0.546353    0.276805     0.004307
NI755   NI        0.274599    0.513214    0.275046     0.004307
NI756   NI        0.274895    0.548705    0.241118     0.004307
NI757   NI        0.308612    0.513942    0.242604     0.004307
NI758   NI        0.307438    0.546747    0.275058     0.004307
NI759   NI        0.342678    0.510269    0.275515     0.004307
NI760   NI        0.345225    0.544044    0.244240     0.004307
NI761   NI        0.378331    0.511268    0.244215     0.004307
NI762   NI        0.376069    0.546955    0.277254     0.004307
NI763   NI        0.412286    0.511702    0.278139     0.004307
NI764   NI        0.411034    0.546565    0.243362     0.004307
NI765   NI        0.443781    0.512956    0.242261     0.004307
NI766   NI        0.444096    0.546943    0.276879     0.004307
NI767   NI        0.480623    0.513292    0.275332     0.004307
NI768   NI        0.479293    0.547474    0.241015     0.004307
NI769   NI        0.513352    0.514552    0.243312     0.004307
NI770   NI        0.513406    0.547555    0.277522     0.004307
NI771   NI        0.547578    0.514304    0.276910     0.004307
NI772   NI        0.548204    0.547082    0.243543     0.004307
NI773   NI        0.580561    0.512139    0.243989     0.004307
NI774   NI        0.581559    0.548202    0.276183     0.004307
NI775   NI        0.615650    0.513679    0.275796     0.004307
NI776   NI        0.613639    0.544943    0.239615     0.004307
NI777   NI        0.648472    0.511255    0.241031     0.004307
NI778   NI        0.650638    0.548619    0.276131     0.004307
NI779   NI        0.682198    0.512509    0.277395     0.004307
NI780   NI        0.681977    0.546133    0.242575     0.004307
AG781   AG        0.726511    0.508378    0.234650     0.008887
AG782   AG        0.721880    0.544375    0.274968     0.008887
AG783   AG        0.764481    0.510182    0.269583     0.008887
AG784   AG        0.769875    0.545566    0.231240     0.008887
AG785   AG        0.816882    0.528073    0.216996     0.008887
AG786   AG        0.807532    0.545821    0.270633     0.008887
AG787   AG        0.121904    0.576633    0.271455     0.008887
AG788   AG        0.115309    0.615946    0.228162     0.008887
AG789   AG        0.157477    0.576168    0.227857     0.008887
AG790   AG        0.162664    0.614065    0.269007     0.008887
NI791   NI        0.209061    0.581726    0.275673     0.004307
AG792   AG        0.201747    0.611497    0.232509     0.008887
NI793   NI        0.240492    0.580887    0.240088     0.004307
NI794   NI        0.236429    0.619317    0.269272     0.004307
NI795   NI        0.272605    0.583359    0.274348     0.004307
NI796   NI        0.274682    0.617785    0.239596     0.004307
NI797   NI        0.307479    0.579711    0.240820     0.004307
NI798   NI        0.308960    0.616963    0.271958     0.004307
NI799   NI        0.342923    0.579107    0.274339     0.004307
NI800   NI        0.344997    0.616472    0.240935     0.004307
NI801   NI        0.377396    0.580696    0.243580     0.004307
NI802   NI        0.377172    0.614428    0.274774     0.004307
NI803   NI        0.411923    0.578574    0.275687     0.004307
NI804   NI        0.413633    0.616483    0.244145     0.004307
NI805   NI        0.446702    0.580935    0.240939     0.004307
NI806   NI        0.447633    0.614650    0.275530     0.004307
NI807   NI        0.479921    0.580008    0.274207     0.004307
NI808   NI        0.482139    0.614018    0.240271     0.004307
NI809   NI        0.514593    0.580261    0.240784     0.004307
NI810   NI        0.513907    0.615413    0.274665     0.004307
NI811   NI        0.547948    0.581676    0.274912     0.004307
NI812   NI        0.548183    0.615298    0.241258     0.004307
NI813   NI        0.582439    0.579872    0.243136     0.004307
NI814   NI        0.580297    0.613529    0.276749     0.004307
NI815   NI        0.615682    0.581159    0.277836     0.004307
NI816   NI        0.614589    0.612848    0.241025     0.004307
NI817   NI        0.648902    0.580734    0.242474     0.004307
NI818   NI        0.649436    0.614887    0.274856     0.004307
NI819   NI        0.684616    0.580854    0.274298     0.004307
AG820   AG        0.684393    0.615641    0.236368     0.008887
AG821   AG        0.724521    0.578725    0.235897     0.008887
AG822   AG        0.724578    0.618907    0.273417     0.008887
AG823   AG        0.762680    0.578648    0.274709     0.008887
AG824   AG        0.770389    0.613840    0.236763     0.008887
AG825   AG        0.116820    0.652473    0.272434     0.008887
AG826   AG        0.159526    0.649605    0.231290     0.008887
AG827   AG        0.156316    0.690079    0.271450     0.008887
AG828   AG        0.198405    0.653719    0.271844     0.008887
AG829   AG        0.198099    0.689842    0.232525     0.008887
AG830   AG        0.236837    0.651603    0.232088     0.008887
AG831   AG        0.236025    0.691046    0.271660     0.008887
NI832   NI        0.275813    0.653166    0.271370     0.004307
AG833   AG        0.277396    0.690238    0.235879     0.008887
NI834   NI        0.311377    0.653084    0.238861     0.004307
NI835   NI        0.310792    0.687591    0.274404     0.004307
NI836   NI        0.342173    0.651403    0.275647     0.004307
NI837   NI        0.346500    0.684944    0.240128     0.004307
NI838   NI        0.377722    0.647893    0.241640     0.004307
NI839   NI        0.376912    0.682180    0.277242     0.004307
NI840   NI        0.411189    0.649816    0.279252     0.004307
NI841   NI        0.410250    0.681450    0.242685     0.004307
NI842   NI        0.445920    0.648997    0.241644     0.004307
NI843   NI        0.446412    0.682570    0.275822     0.004307
NI844   NI        0.480195    0.649807    0.273976     0.004307
NI845   NI        0.481995    0.685375    0.239059     0.004307
NI846   NI        0.515290    0.646737    0.236935     0.004307
NI847   NI        0.515544    0.682004    0.277010     0.004307
NI848   NI        0.548381    0.648757    0.277668     0.004307
NI849   NI        0.551691    0.682103    0.243570     0.004307
NI850   NI        0.582554    0.649068    0.244385     0.004307
NI851   NI        0.583378    0.683314    0.280319     0.004307
NI852   NI        0.616406    0.649095    0.279216     0.004307
AG853   AG        0.609273    0.693700    0.233902     0.008887
AG854   AG        0.644353    0.655348    0.236944     0.008887
AG855   AG        0.644610    0.692276    0.274470     0.008887
AG856   AG        0.685215    0.657887    0.270821     0.008887
AG857   AG        0.682803    0.696555    0.232944     0.008887
AG858   AG        0.727790    0.658159    0.232022     0.008887
AG859   AG        0.723348    0.696556    0.269208     0.008887
AG860   AG        0.765525    0.654119    0.271394     0.008887
AG861   AG        0.195226    0.727726    0.270827     0.008887
AG862   AG        0.235424    0.730849    0.233197     0.008887
AG863   AG        0.234475    0.771802    0.268636     0.008887
AG864   AG        0.275963    0.728659    0.271074     0.008887
AG865   AG        0.276057    0.769906    0.234771     0.008887
AG866   AG        0.315451    0.728177    0.232646     0.008887
AG867   AG        0.318153    0.769338    0.272683     0.008887
AG868   AG        0.349859    0.724812    0.269786     0.008887
AG869   AG        0.352233    0.768255    0.231912     0.008887
AG870   AG        0.388168    0.723092    0.234746     0.008887
AG871   AG        0.387456    0.762643    0.270867     0.008887
NI872   NI        0.414051    0.716381    0.277302     0.004307
AG873   AG        0.411349    0.773823    0.221972     0.008887
AG874   AG        0.447520    0.722900    0.240697     0.008887
AG875   AG        0.445863    0.768916    0.265223     0.008887
NI876   NI        0.480993    0.714672    0.279183     0.004307
AG877   AG        0.489403    0.764228    0.228525     0.008887
AG878   AG        0.518299    0.720546    0.241307     0.008887
AG879   AG        0.513951    0.761435    0.277476     0.008887
AG880   AG        0.551361    0.720247    0.282256     0.008887
AG881   AG        0.535227    0.778364    0.229057     0.008887
AG882   AG        0.569672    0.732088    0.234192     0.008887
AG883   AG        0.570147    0.770922    0.270222     0.008887
AG884   AG        0.608507    0.733615    0.274159     0.008887
AG885   AG        0.607865    0.777840    0.232821     0.008887
AG886   AG        0.647617    0.736878    0.230778     0.008887
AG887   AG        0.645030    0.776852    0.271461     0.008887
AG888   AG        0.683217    0.738182    0.272386     0.008887
AG889   AG        0.317350    0.807256    0.230718     0.008887
AG890   AG        0.373863    0.816547    0.225280     0.008887
AG891   AG        0.413452    0.809501    0.262050     0.008887
AG892   AG        0.451597    0.810626    0.220094     0.008887
AG893   AG        0.456905    0.852841    0.258816     0.008887
AG894   AG        0.484114    0.806040    0.264613     0.008887
AG895   AG        0.503721    0.823883    0.217187     0.008887
AG896   AG        0.540162    0.818945    0.270016     0.008887
AG897   AG        0.295871    0.034219    0.316684     0.008887
AG898   AG        0.357591    0.033277    0.302500     0.008887
AG899   AG        0.389909    0.046085    0.347986     0.008887
AG900   AG        0.414195    0.031328    0.302214     0.008887
AG901   AG        0.439932    0.049598    0.351359     0.008887
AG902   AG        0.475638    0.032728    0.310035     0.008887
AG903   AG        0.533572    0.040365    0.311520     0.008887
AG904   AG        0.579345    0.043010    0.275104     0.008887
AG905   AG        0.601454    0.027825    0.328465     0.008887
AG906   AG        0.212074    0.110150    0.303703     0.008887
AG907   AG        0.246187    0.110322    0.346513     0.008887
AG908   AG        0.249431    0.065204    0.309757     0.008887
AG909   AG        0.281802    0.107519    0.308313     0.008887
AG910   AG        0.292391    0.067635    0.271716     0.008887
AG911   AG        0.308924    0.122300    0.352919     0.008887
AG912   AG        0.327286    0.077307    0.313986     0.008887
AG913   AG        0.347498    0.127013    0.311598     0.008887
AG914   AG        0.382649    0.083498    0.308997     0.008887
NI915   NI        0.384529    0.138126    0.343096     0.004307
AG916   AG        0.414757    0.095902    0.351378     0.008887
AG917   AG        0.415607    0.131071    0.307120     0.008887
AG918   AG        0.443984    0.079679    0.304295     0.008887
NI919   NI        0.446334    0.134349    0.350257     0.004307
AG920   AG        0.499764    0.086383    0.310695     0.008887
AG921   AG        0.472814    0.131861    0.311296     0.008887
AG922   AG        0.537299    0.079421    0.272595     0.008887
NI923   NI        0.510623    0.137635    0.345410     0.004307
AG924   AG        0.575035    0.076844    0.317168     0.008887
AG925   AG        0.541257    0.119933    0.310473     0.008887
AG926   AG        0.620966    0.079380    0.280732     0.008887
AG927   AG        0.583575    0.126453    0.345852     0.008887
AG928   AG        0.627822    0.074552    0.341720     0.008887
AG929   AG        0.621651    0.123774    0.311573     0.008887
AG930   AG        0.667578    0.112696    0.343797     0.008887
AG931   AG        0.712841    0.116905    0.308056     0.008887
AG932   AG        0.128606    0.183262    0.303931     0.008887
AG933   AG        0.171286    0.147933    0.303990     0.008887
AG934   AG        0.169054    0.188489    0.342784     0.008887
AG935   AG        0.209259    0.151902    0.343166     0.008887
AG936   AG        0.211006    0.191072    0.304279     0.008887
AG937   AG        0.250107    0.154270    0.304965     0.008887
NI938   NI        0.245564    0.201723    0.340269     0.004307
AG939   AG        0.266956    0.159575    0.355113     0.008887
NI940   NI        0.278145    0.205168    0.309506     0.004307
AG941   AG        0.304152    0.159961    0.315959     0.008887
NI942   NI        0.309811    0.203666    0.343220     0.004307
NI943   NI        0.346079    0.166840    0.341596     0.004307
NI944   NI        0.343343    0.201551    0.307780     0.004307
NI945   NI        0.381816    0.169523    0.309845     0.004307
NI946   NI        0.377005    0.204839    0.343119     0.004307
NI947   NI        0.413445    0.172456    0.345405     0.004307
NI948   NI        0.412107    0.204315    0.307222     0.004307
NI949   NI        0.446377    0.172448    0.311421     0.004307
NI950   NI        0.443437    0.206288    0.341696     0.004307
NI951   NI        0.476366    0.172771    0.345620     0.004307
NI952   NI        0.479827    0.205953    0.308522     0.004307
NI953   NI        0.509422    0.170513    0.307386     0.004307
NI954   NI        0.511891    0.203005    0.340207     0.004307
NI955   NI        0.544441    0.168968    0.339408     0.004307
NI956   NI        0.545359    0.202592    0.305106     0.004307
AG957   AG        0.579025    0.163333    0.306750     0.008887
NI958   NI        0.582704    0.204373    0.341194     0.004307
AG959   AG        0.618773    0.166399    0.343023     0.008887
NI960   NI        0.617522    0.204949    0.306659     0.004307
AG961   AG        0.661393    0.161411    0.313804     0.008887
NI962   NI        0.650867    0.205579    0.340813     0.004307
AG963   AG        0.703962    0.154842    0.351340     0.008887
AG964   AG        0.695631    0.201066    0.317646     0.008887
AG965   AG        0.746201    0.159468    0.316477     0.008887
AG966   AG        0.741064    0.197276    0.355488     0.008887
AG967   AG        0.786667    0.202008    0.310498     0.008887
AG968   AG        0.084486    0.216644    0.301877     0.008887
AG969   AG        0.130894    0.223463    0.343142     0.008887
AG970   AG        0.128370    0.265703    0.309792     0.008887
AG971   AG        0.171444    0.228267    0.304399     0.008887
AG972   AG        0.172573    0.266036    0.342929     0.008887
NI973   NI        0.205003    0.228011    0.342144     0.004307
NI974   NI        0.209802    0.271364    0.304029     0.004307
NI975   NI        0.244564    0.237175    0.306519     0.004307
NI976   NI        0.243617    0.270360    0.341755     0.004307
NI977   NI        0.277849    0.236157    0.343613     0.004307
NI978   NI        0.276414    0.269847    0.306876     0.004307
NI979   NI        0.312154    0.237191    0.308391     0.004307
NI980   NI        0.308497    0.270724    0.340838     0.004307
NI981   NI        0.342626    0.237217    0.341268     0.004307
NI982   NI        0.343401    0.270289    0.305836     0.004307
NI983   NI        0.376256    0.238329    0.309813     0.004307
NI984   NI        0.377515    0.273132    0.342703     0.004307
NI985   NI        0.409582    0.239542    0.341840     0.004307
NI986   NI        0.408129    0.270605    0.308214     0.004307
NI987   NI        0.444270    0.238118    0.308167     0.004307
NI988   NI        0.445277    0.272826    0.340981     0.004307
NI989   NI        0.481466    0.239517    0.341820     0.004307
NI990   NI        0.479918    0.271019    0.306806     0.004307
NI991   NI        0.519113    0.238513    0.303741     0.004307
NI992   NI        0.515423    0.272014    0.340435     0.004307
NI993   NI        0.549414    0.239006    0.338198     0.004307
NI994   NI        0.550503    0.271832    0.302007     0.004307
NI995   NI        0.584437    0.235249    0.307272     0.004307
NI996   NI        0.581951    0.274442    0.341026     0.004307
NI997   NI        0.617231    0.239991    0.340763     0.004307
NI998   NI        0.617732    0.273603    0.306324     0.004307
NI999   NI        0.652493    0.239969    0.308849     0.004307
NI1000   NI        0.649542    0.275390    0.339615     0.004307
NI1001   NI        0.686846    0.242626    0.341066     0.004307
NI1002   NI        0.686669    0.276345    0.306905     0.004307
AG1003   AG        0.734108    0.239042    0.319088     0.008887
AG1004   AG        0.726635    0.289920    0.332085     0.008887
AG1005   AG        0.781566    0.232999    0.352878     0.008887
AG1006   AG        0.775516    0.277204    0.317327     0.008887
AG1007   AG        0.818063    0.274530    0.349590     0.008887
AG1008   AG        0.080857    0.261424    0.342977     0.008887
AG1009   AG        0.079642    0.341539    0.268024     0.008887
AG1010   AG        0.085253    0.269682    0.275358     0.008887
AG1011   AG        0.089165    0.310587    0.314254     0.008887
AG1012   AG        0.136199    0.305976    0.347534     0.008887
AG1013   AG        0.132594    0.345504    0.308982     0.008887
AG1014   AG        0.169939    0.305368    0.303615     0.008887
NI1015   NI        0.172202    0.341567    0.342269     0.004307
NI1016   NI        0.210498    0.305504    0.340499     0.004307
NI1017   NI        0.209023    0.338907    0.306184     0.004307
NI1018   NI        0.242731    0.307060    0.305484     0.004307
NI1019   NI        0.242622    0.338507    0.341606     0.004307
NI1020   NI        0.277124    0.307108    0.340105     0.004307
NI1021   NI        0.277659    0.339699    0.308135     0.004307
NI1022   NI        0.310185    0.305687    0.307750     0.004307
NI1023   NI        0.309336    0.337345    0.341032     0.004307
NI1024   NI        0.344791    0.304341    0.341590     0.004307
NI1025   NI        0.343206    0.339621    0.309427     0.004307
NI1026   NI        0.377801    0.307870    0.307799     0.004307
NI1027   NI        0.374997    0.336655    0.344417     0.004307
NI1028   NI        0.410686    0.305879    0.342137     0.004307
NI1029   NI        0.410585    0.341789    0.310795     0.004307
NI1030   NI        0.444260    0.306853    0.306876     0.004307
NI1031   NI        0.446391    0.338916    0.342150     0.004307
NI1032   NI        0.483021    0.305087    0.341222     0.004307
NI1033   NI        0.480492    0.338851    0.308446     0.004307
NI1034   NI        0.515822    0.303575    0.305808     0.004307
NI1035   NI        0.514534    0.341879    0.340701     0.004307
NI1036   NI        0.547029    0.306108    0.340529     0.004307
NI1037   NI        0.549845    0.341588    0.309919     0.004307
NI1038   NI        0.582675    0.306479    0.305172     0.004307
NI1039   NI        0.580270    0.341527    0.342742     0.004307
NI1040   NI        0.614488    0.307757    0.338194     0.004307
NI1041   NI        0.615123    0.342235    0.309095     0.004307
NI1042   NI        0.651243    0.310058    0.307159     0.004307
NI1043   NI        0.650111    0.344489    0.341151     0.004307
NI1044   NI        0.684165    0.309685    0.341197     0.004307
NI1045   NI        0.683545    0.346274    0.309022     0.004307
AG1046   AG        0.725987    0.336548    0.291052     0.008887
NI1047   NI        0.718151    0.345158    0.342652     0.004307
AG1048   AG        0.764074    0.333428    0.332142     0.008887
AG1049   AG        0.768520    0.371980    0.291368     0.008887
AG1050   AG        0.822715    0.315113    0.309552     0.008887
AG1051   AG        0.808946    0.364986    0.330753     0.008887
AG1052   AG        0.856750    0.309436    0.358966     0.008887
AG1053   AG        0.857570    0.357891    0.308593     0.008887
AG1054   AG        0.045601    0.379900    0.339550     0.008887
AG1055   AG        0.046242    0.389589    0.280107     0.008887
AG1056   AG        0.090670    0.376395    0.308626     0.008887
AG1057   AG        0.099545    0.409809    0.347697     0.008887
NI1058   NI        0.140498    0.380687    0.343765     0.004307
AG1059   AG        0.135587    0.409397    0.305321     0.008887
NI1060   NI        0.175273    0.375167    0.308669     0.004307
NI1061   NI        0.179865    0.407802    0.341323     0.004307
NI1062   NI        0.209533    0.373556    0.342319     0.004307
NI1063   NI        0.210260    0.408148    0.307871     0.004307
NI1064   NI        0.241361    0.372726    0.307702     0.004307
NI1065   NI        0.242453    0.407058    0.343321     0.004307
NI1066   NI        0.277079    0.371053    0.342726     0.004307
NI1067   NI        0.273772    0.406860    0.308612     0.004307
NI1068   NI        0.309360    0.374706    0.307158     0.004307
NI1069   NI        0.304907    0.409902    0.344426     0.004307
NI1070   NI        0.342731    0.375137    0.343388     0.004307
NI1071   NI        0.342753    0.408113    0.309744     0.004307
NI1072   NI        0.375492    0.373362    0.311887     0.004307
NI1073   NI        0.374230    0.408898    0.343293     0.004307
NI1074   NI        0.407390    0.376186    0.343155     0.004307
NI1075   NI        0.411109    0.411085    0.313391     0.004307
NI1076   NI        0.446313    0.373682    0.310922     0.004307
NI1077   NI        0.443784    0.410170    0.346572     0.004307
NI1078   NI        0.478088    0.376099    0.345417     0.004307
NI1079   NI        0.478589    0.410142    0.312381     0.004307
NI1080   NI        0.513745    0.376070    0.308034     0.004307
NI1081   NI        0.512079    0.411250    0.345047     0.004307
NI1082   NI        0.545690    0.377186    0.342340     0.004307
NI1083   NI        0.546918    0.409689    0.310281     0.004307
NI1084   NI        0.582187    0.376724    0.310428     0.004307
NI1085   NI        0.582072    0.411826    0.343436     0.004307
NI1086   NI        0.616612    0.378893    0.346132     0.004307
NI1087   NI        0.616518    0.414614    0.306201     0.004307
NI1088   NI        0.650333    0.379756    0.307806     0.004307
NI1089   NI        0.649829    0.410786    0.343805     0.004307
NI1090   NI        0.683743    0.379131    0.341555     0.004307
NI1091   NI        0.683606    0.411797    0.311593     0.004307
NI1092   NI        0.719423    0.380355    0.307882     0.004307
NI1093   NI        0.717505    0.412080    0.342313     0.004307
NI1094   NI        0.755632    0.380513    0.340749     0.004307
AG1095   AG        0.757570    0.416514    0.302643     0.008887
AG1096   AG        0.816923    0.403869    0.288915     0.008887
AG1097   AG        0.797599    0.417712    0.337448     0.008887
AG1098   AG        0.849158    0.402758    0.340778     0.008887
AG1099   AG        0.858140    0.436201    0.295291     0.008887
AG1100   AG        0.055711    0.427875    0.321955     0.008887
AG1101   AG        0.042997    0.481331    0.315344     0.008887
AG1102   AG        0.089423    0.421709    0.284208     0.008887
AG1103   AG        0.102015    0.458866    0.331698     0.008887
NI1104   NI        0.145351    0.442115    0.343863     0.004307
AG1105   AG        0.132756    0.451396    0.286353     0.008887
NI1106   NI        0.177214    0.442203    0.310060     0.004307
NI1107   NI        0.175051    0.475617    0.340767     0.004307
NI1108   NI        0.209222    0.444417    0.342803     0.004307
NI1109   NI        0.209561    0.479167    0.309663     0.004307
NI1110   NI        0.241137    0.443144    0.309746     0.004307
NI1111   NI        0.241376    0.477731    0.341751     0.004307
NI1112   NI        0.274070    0.442165    0.343124     0.004307
NI1113   NI        0.274453    0.478494    0.309509     0.004307
NI1114   NI        0.307191    0.445732    0.311602     0.004307
NI1115   NI        0.308937    0.477709    0.345441     0.004307
NI1116   NI        0.341522    0.441700    0.342562     0.004307
NI1117   NI        0.340076    0.477420    0.309659     0.004307
NI1118   NI        0.375159    0.441217    0.308032     0.004307
NI1119   NI        0.375106    0.478872    0.344934     0.004307
NI1120   NI        0.408687    0.443483    0.344717     0.004307
NI1121   NI        0.408143    0.477991    0.310447     0.004307
NI1122   NI        0.444330    0.445106    0.311879     0.004307
NI1123   NI        0.444951    0.478631    0.343805     0.004307
NI1124   NI        0.479308    0.445673    0.344600     0.004307
NI1125   NI        0.478652    0.479752    0.309494     0.004307
NI1126   NI        0.513235    0.443826    0.309818     0.004307
NI1127   NI        0.510790    0.480126    0.343933     0.004307
NI1128   NI        0.546451    0.445249    0.343908     0.004307
NI1129   NI        0.544645    0.478812    0.309057     0.004307
NI1130   NI        0.578838    0.446089    0.311918     0.004307
NI1131   NI        0.580008    0.480051    0.345217     0.004307
NI1132   NI        0.613860    0.444846    0.344437     0.004307
NI1133   NI        0.615339    0.483773    0.309183     0.004307
NI1134   NI        0.647511    0.448840    0.312721     0.004307
NI1135   NI        0.646000    0.481965    0.345917     0.004307
NI1136   NI        0.680267    0.444899    0.344500     0.004307
NI1137   NI        0.683237    0.478610    0.310398     0.004307
NI1138   NI        0.715621    0.448416    0.307926     0.004307
NI1139   NI        0.716426    0.479251    0.343668     0.004307
NI1140   NI        0.753076    0.445833    0.346361     0.004307
AG1141   AG        0.757293    0.480330    0.311824     0.008887
AG1142   AG        0.808769    0.458677    0.304603     0.008887
AG1143   AG        0.790705    0.476223    0.352133     0.008887
AG1144   AG        0.836695    0.449122    0.352691     0.008887
AG1145   AG        0.853860    0.486121    0.300651     0.008887
AG1146   AG        0.041495    0.518204    0.354996     0.008887
AG1147   AG        0.038799    0.547162    0.311344     0.008887
AG1148   AG        0.087547    0.510130    0.323977     0.008887
AG1149   AG        0.081218    0.551611    0.356285     0.008887
NI1150   NI        0.136797    0.501599    0.337831     0.004307
AG1151   AG        0.125190    0.546223    0.318956     0.008887
NI1152   NI        0.172761    0.511318    0.311050     0.004307
NI1153   NI        0.168256    0.543139    0.342505     0.004307
NI1154   NI        0.207776    0.512951    0.343762     0.004307
NI1155   NI        0.205104    0.549099    0.309708     0.004307
NI1156   NI        0.241416    0.512070    0.307640     0.004307
NI1157   NI        0.240383    0.545047    0.341447     0.004307
NI1158   NI        0.274788    0.512026    0.341054     0.004307
NI1159   NI        0.273777    0.546900    0.308620     0.004307
NI1160   NI        0.310097    0.512174    0.307520     0.004307
NI1161   NI        0.306606    0.547793    0.344032     0.004307
NI1162   NI        0.341012    0.512076    0.343533     0.004307
NI1163   NI        0.340203    0.547482    0.310780     0.004307
NI1164   NI        0.373140    0.510097    0.311823     0.004307
NI1165   NI        0.375763    0.545869    0.345261     0.004307
NI1166   NI        0.410651    0.512206    0.341440     0.004307
NI1167   NI        0.412157    0.543958    0.309327     0.004307
NI1168   NI        0.445785    0.511312    0.310416     0.004307
NI1169   NI        0.446856    0.548329    0.344151     0.004307
NI1170   NI        0.478020    0.512014    0.344013     0.004307
NI1171   NI        0.478691    0.548215    0.308945     0.004307
NI1172   NI        0.511546    0.514129    0.310361     0.004307
NI1173   NI        0.513953    0.548134    0.344634     0.004307
NI1174   NI        0.544701    0.511249    0.341177     0.004307
NI1175   NI        0.547365    0.547146    0.310508     0.004307
NI1176   NI        0.579721    0.512302    0.309198     0.004307
NI1177   NI        0.580677    0.545408    0.344752     0.004307
NI1178   NI        0.612865    0.515062    0.344758     0.004307
NI1179   NI        0.614462    0.545200    0.311108     0.004307
NI1180   NI        0.648536    0.513074    0.310890     0.004307
NI1181   NI        0.648222    0.547016    0.346820     0.004307
NI1182   NI        0.680105    0.515097    0.346783     0.004307
NI1183   NI        0.682523    0.545547    0.312470     0.004307
NI1184   NI        0.717835    0.513289    0.313073     0.004307
NI1185   NI        0.718825    0.547132    0.343257     0.004307
NI1186   NI        0.751615    0.512108    0.349684     0.004307
AG1187   AG        0.760602    0.541213    0.310703     0.008887
AG1188   AG        0.803878    0.512705    0.312989     0.008887
AG1189   AG        0.804700    0.572343    0.325046     0.008887
AG1190   AG        0.851324    0.539514    0.301886     0.008887
AG1191   AG        0.853368    0.593295    0.322897     0.008887
AG1192   AG        0.033664    0.587304    0.349221     0.008887
AG1193   AG        0.080695    0.582773    0.310850     0.008887
AG1194   AG        0.079303    0.616236    0.352815     0.008887
AG1195   AG        0.123458    0.585273    0.357262     0.008887
AG1196   AG        0.119499    0.616339    0.310809     0.008887
AG1197   AG        0.167207    0.584420    0.313547     0.008887
AG1198   AG        0.164930    0.620706    0.354560     0.008887
NI1199   NI        0.207393    0.579370    0.345301     0.004307
NI1200   NI        0.206656    0.616592    0.307676     0.004307
NI1201   NI        0.240107    0.582414    0.311518     0.004307
NI1202   NI        0.239618    0.615378    0.343280     0.004307
NI1203   NI        0.273241    0.581336    0.345312     0.004307
NI1204   NI        0.271192    0.617824    0.304861     0.004307
NI1205   NI        0.306067    0.583203    0.307027     0.004307
NI1206   NI        0.307343    0.613148    0.341852     0.004307
NI1207   NI        0.342066    0.580908    0.343070     0.004307
NI1208   NI        0.340024    0.614588    0.306811     0.004307
NI1209   NI        0.376342    0.581147    0.309386     0.004307
NI1210   NI        0.379915    0.613542    0.345221     0.004307
NI1211   NI        0.409456    0.577029    0.341717     0.004307
NI1212   NI        0.410288    0.612727    0.310078     0.004307
NI1213   NI        0.447384    0.581336    0.309183     0.004307
NI1214   NI        0.445144    0.614109    0.344041     0.004307
NI1215   NI        0.478682    0.581888    0.347183     0.004307
NI1216   NI        0.478098    0.616142    0.309423     0.004307
NI1217   NI        0.511895    0.582586    0.310998     0.004307
NI1218   NI        0.511901    0.612421    0.342356     0.004307
NI1219   NI        0.547353    0.581540    0.343117     0.004307
NI1220   NI        0.545240    0.614027    0.310471     0.004307
NI1221   NI        0.582197    0.578662    0.311211     0.004307
NI1222   NI        0.580618    0.616518    0.345439     0.004307
NI1223   NI        0.616517    0.581372    0.347455     0.004307
NI1224   NI        0.616304    0.614294    0.310346     0.004307
NI1225   NI        0.649920    0.580110    0.310769     0.004307
NI1226   NI        0.650354    0.616465    0.342775     0.004307
NI1227   NI        0.683478    0.580293    0.344360     0.004307
NI1228   NI        0.681600    0.613616    0.308360     0.004307
AG1229   AG        0.721009    0.582817    0.310786     0.008887
AG1230   AG        0.721589    0.616786    0.349324     0.008887
AG1231   AG        0.759918    0.579008    0.349074     0.008887
AG1232   AG        0.765516    0.616437    0.311116     0.008887
AG1233   AG        0.811592    0.603859    0.280757     0.008887
AG1234   AG        0.808114    0.620484    0.344067     0.008887
AG1235   AG        0.848661    0.611343    0.377206     0.008887
AG1236   AG        0.118866    0.656101    0.348484     0.008887
AG1237   AG        0.114895    0.697889    0.310967     0.008887
AG1238   AG        0.162502    0.651332    0.312160     0.008887
AG1239   AG        0.158429    0.694989    0.347465     0.008887
NI1240   NI        0.206535    0.652073    0.342291     0.004307
AG1241   AG        0.198260    0.690110    0.311278     0.008887
NI1242   NI        0.238659    0.651333    0.307256     0.004307
NI1243   NI        0.238868    0.688290    0.342566     0.004307
NI1244   NI        0.271309    0.648045    0.342299     0.004307
NI1245   NI        0.274584    0.686740    0.309894     0.004307
NI1246   NI        0.307962    0.652031    0.308447     0.004307
NI1247   NI        0.307376    0.686354    0.343481     0.004307
NI1248   NI        0.342254    0.647880    0.341843     0.004307
NI1249   NI        0.344343    0.684532    0.308178     0.004307
NI1250   NI        0.374949    0.645333    0.311055     0.004307
NI1251   NI        0.376307    0.680756    0.345850     0.004307
NI1252   NI        0.411641    0.647667    0.344807     0.004307
NI1253   NI        0.412164    0.683877    0.313867     0.004307
NI1254   NI        0.445889    0.649551    0.312265     0.004307
NI1255   NI        0.444652    0.681557    0.349029     0.004307
NI1256   NI        0.479974    0.646480    0.346489     0.004307
NI1257   NI        0.480479    0.678149    0.313119     0.004307
NI1258   NI        0.513856    0.646437    0.309477     0.004307
NI1259   NI        0.512922    0.678477    0.346793     0.004307
NI1260   NI        0.545933    0.644847    0.345190     0.004307
NI1261   NI        0.547535    0.679927    0.313455     0.004307
NI1262   NI        0.580390    0.649161    0.310751     0.004307
NI1263   NI        0.580636    0.680550    0.347260     0.004307
NI1264   NI        0.616196    0.650013    0.341639     0.004307
NI1265   NI        0.616859    0.685085    0.314240     0.004307
NI1266   NI        0.651054    0.651597    0.309249     0.004307
NI1267   NI        0.652335    0.684630    0.348207     0.004307
NI1268   NI        0.684586    0.649626    0.347149     0.004307
AG1269   AG        0.684184    0.695871    0.310870     0.008887
AG1270   AG        0.723984    0.655905    0.314111     0.008887
AG1271   AG        0.728029    0.698412    0.346280     0.008887
AG1272   AG        0.772636    0.660846    0.341184     0.008887
AG1273   AG        0.763497    0.700058    0.305791     0.008887
AG1274   AG        0.154373    0.734288    0.306956     0.008887
AG1275   AG        0.195424    0.735313    0.348014     0.008887
AG1276   AG        0.194500    0.773738    0.309070     0.008887
AG1277   AG        0.234283    0.731700    0.309639     0.008887
AG1278   AG        0.236698    0.771220    0.344809     0.008887
AG1279   AG        0.275826    0.725328    0.343202     0.008887
AG1280   AG        0.277018    0.768364    0.308406     0.008887
AG1281   AG        0.313973    0.723966    0.307731     0.008887
AG1282   AG        0.314532    0.761547    0.349341     0.008887
NI1283   NI        0.345996    0.719570    0.345174     0.004307
AG1284   AG        0.353065    0.760181    0.310692     0.008887
NI1285   NI        0.379820    0.717132    0.310855     0.004307
NI1286   NI        0.382630    0.751095    0.348206     0.004307
NI1287   NI        0.411631    0.714790    0.346645     0.004307
AG1288   AG        0.420788    0.755081    0.311792     0.008887
NI1289   NI        0.448054    0.712885    0.312587     0.004307
NI1290   NI        0.446274    0.745420    0.350796     0.004307
NI1291   NI        0.478981    0.712576    0.347015     0.004307
AG1292   AG        0.474754    0.754852    0.310505     0.008887
NI1293   NI        0.511328    0.713968    0.312688     0.004307
NI1294   NI        0.508192    0.748446    0.347011     0.004307
NI1295   NI        0.544398    0.714856    0.346600     0.004307
AG1296   AG        0.548168    0.761664    0.320206     0.008887
AG1297   AG        0.586803    0.726807    0.322695     0.008887
AG1298   AG        0.584262    0.766192    0.363202     0.008887
AG1299   AG        0.623949    0.726583    0.359161     0.008887
AG1300   AG        0.607378    0.774024    0.312312     0.008887
AG1301   AG        0.645983    0.734149    0.311393     0.008887
AG1302   AG        0.647126    0.772869    0.347927     0.008887
AG1303   AG        0.683277    0.732572    0.350298     0.008887
AG1304   AG        0.685589    0.780328    0.310167     0.008887
AG1305   AG        0.725048    0.735919    0.308432     0.008887
AG1306   AG        0.239979    0.811844    0.308797     0.008887
AG1307   AG        0.282156    0.810098    0.273185     0.008887
AG1308   AG        0.284231    0.845552    0.315291     0.008887
AG1309   AG        0.322088    0.804689    0.315497     0.008887
AG1310   AG        0.319074    0.849686    0.273634     0.008887
AG1311   AG        0.355338    0.808015    0.272920     0.008887
AG1312   AG        0.355767    0.846167    0.313865     0.008887
AG1313   AG        0.393880    0.805613    0.314206     0.008887
AG1314   AG        0.379794    0.857116    0.264914     0.008887
AG1315   AG        0.448179    0.801623    0.307022     0.008887
AG1316   AG        0.423575    0.852101    0.308786     0.008887
AG1317   AG        0.477979    0.789455    0.356365     0.008887
AG1318   AG        0.484024    0.848639    0.305453     0.008887
AG1319   AG        0.510481    0.800387    0.314904     0.008887
AG1320   AG        0.508164    0.840667    0.354342     0.008887
AG1321   AG        0.568324    0.809997    0.327315     0.008887
AG1322   AG        0.541335    0.857321    0.313375     0.008887
AG1323   AG        0.600372    0.817286    0.278495     0.008887
AG1324   AG        0.598607    0.855811    0.326628     0.008887
AG1325   AG        0.645069    0.816241    0.316056     0.008887
AG1326   AG        0.283845    0.049656    0.411865     0.008887
AG1327   AG        0.336172    0.040636    0.355085     0.008887
AG1328   AG        0.383220    0.055238    0.396278     0.008887
AG1329   AG        0.368346    0.004030    0.377921     0.008887
AG1330   AG        0.421380    0.015744    0.388853     0.008887
AG1331   AG        0.463013    0.001665    0.355878     0.008887
AG1332   AG        0.464252    0.050540    0.399069     0.008887
AG1333   AG        0.503887    0.000769    0.395033     0.008887
AG1334   AG        0.497036    0.041261    0.355935     0.008887
AG1335   AG        0.514144    0.052936    0.402546     0.008887
AG1336   AG        0.551184    0.038582    0.362814     0.008887
AG1337   AG        0.569653    0.046524    0.418957     0.008887
AG1338   AG        0.146518    0.080111    0.362013     0.008887
AG1339   AG        0.196419    0.112377    0.380658     0.008887
AG1340   AG        0.199314    0.074755    0.340963     0.008887
AG1341   AG        0.229125    0.098222    0.425310     0.008887
AG1342   AG        0.237858    0.069101    0.380760     0.008887
AG1343   AG        0.273867    0.107771    0.392578     0.008887
AG1344   AG        0.292441    0.073566    0.353800     0.008887
AG1345   AG        0.314853    0.130667    0.413476     0.008887
AG1346   AG        0.326007    0.078071    0.395691     0.008887
NI1347   NI        0.350384    0.135923    0.377892     0.004307
AG1348   AG        0.361054    0.092482    0.355696     0.008887
NI1349   NI        0.381886    0.139000    0.414544     0.004307
AG1350   AG        0.430376    0.091775    0.397186     0.008887
NI1351   NI        0.410542    0.138651    0.382246     0.004307
AG1352   AG        0.472281    0.093535    0.358439     0.008887
NI1353   NI        0.447711    0.139376    0.411132     0.004307
AG1354   AG        0.482788    0.099042    0.410024     0.008887
NI1355   NI        0.481396    0.138433    0.380188     0.004307
AG1356   AG        0.530356    0.088586    0.354392     0.008887
NI1357   NI        0.512294    0.140835    0.414010     0.004307
AG1358   AG        0.541027    0.097026    0.404888     0.008887
NI1359   NI        0.544609    0.138096    0.375838     0.004307
AG1360   AG        0.583868    0.079902    0.371653     0.008887
AG1361   AG        0.581527    0.131387    0.407058     0.008887
AG1362   AG        0.612458    0.082734    0.419231     0.008887
AG1363   AG        0.625783    0.117569    0.376933     0.008887
AG1364   AG        0.666327    0.076069    0.385162     0.008887
AG1365   AG        0.658036    0.120374    0.415915     0.008887
AG1366   AG        0.711439    0.114496    0.385773     0.008887
AG1367   AG        0.757178    0.104059    0.414031     0.008887
AG1368   AG        0.102691    0.113967    0.364386     0.008887
AG1369   AG        0.116398    0.170231    0.354804     0.008887
AG1370   AG        0.154937    0.133355    0.350198     0.008887
AG1371   AG        0.161798    0.166901    0.393287     0.008887
AG1372   AG        0.191989    0.135800    0.432694     0.008887
AG1373   AG        0.210161    0.193793    0.376294     0.008887
AG1374   AG        0.236759    0.148721    0.400094     0.008887
NI1375   NI        0.244679    0.200162    0.410565     0.004307
NI1376   NI        0.280840    0.169043    0.409044     0.004307
NI1377   NI        0.276700    0.204697    0.376677     0.004307
NI1378   NI        0.312686    0.168357    0.375488     0.004307
NI1379   NI        0.310694    0.205299    0.410029     0.004307
NI1380   NI        0.345297    0.172095    0.412246     0.004307
NI1381   NI        0.345381    0.204978    0.378089     0.004307
NI1382   NI        0.379550    0.171691    0.376417     0.004307
NI1383   NI        0.381931    0.207983    0.410557     0.004307
NI1384   NI        0.415168    0.173019    0.414402     0.004307
NI1385   NI        0.412883    0.206785    0.375990     0.004307
NI1386   NI        0.445729    0.171291    0.378516     0.004307
NI1387   NI        0.445266    0.207415    0.408348     0.004307
NI1388   NI        0.478972    0.174896    0.411431     0.004307
NI1389   NI        0.479301    0.207250    0.375995     0.004307
NI1390   NI        0.514042    0.174611    0.376534     0.004307
NI1391   NI        0.517599    0.210149    0.407071     0.004307
NI1392   NI        0.551043    0.171913    0.406752     0.004307
NI1393   NI        0.548455    0.206244    0.371646     0.004307
NI1394   NI        0.581375    0.171499    0.373938     0.004307
NI1395   NI        0.582362    0.205386    0.410110     0.004307
NI1396   NI        0.614109    0.166889    0.407877     0.004307
NI1397   NI        0.618816    0.204924    0.379385     0.004307
AG1398   AG        0.654883    0.165348    0.379752     0.008887
NI1399   NI        0.654093    0.203817    0.410581     0.004307
AG1400   AG        0.695376    0.160056    0.413683     0.008887
AG1401   AG        0.689589    0.202132    0.371827     0.008887
AG1402   AG        0.747919    0.153381    0.385459     0.008887
AG1403   AG        0.734051    0.200494    0.407863     0.008887
AG1404   AG        0.797727    0.141402    0.416144     0.008887
AG1405   AG        0.788771    0.189578    0.384678     0.008887
AG1406   AG        0.078716    0.205625    0.362778     0.008887
AG1407   AG        0.079887    0.252263    0.396395     0.008887
AG1408   AG        0.123141    0.208642    0.394533     0.008887
AG1409   AG        0.128915    0.264056    0.377638     0.008887
AG1410   AG        0.170706    0.229147    0.383462     0.008887
NI1411   NI        0.174908    0.273247    0.406491     0.004307
NI1412   NI        0.212650    0.235221    0.411388     0.004307
NI1413   NI        0.210204    0.272286    0.375684     0.004307
NI1414   NI        0.241281    0.235281    0.374563     0.004307
NI1415   NI        0.242585    0.270299    0.409771     0.004307
NI1416   NI        0.274516    0.237806    0.410948     0.004307
NI1417   NI        0.273356    0.271812    0.376232     0.004307
NI1418   NI        0.311289    0.238467    0.376367     0.004307
NI1419   NI        0.310310    0.271330    0.407960     0.004307
NI1420   NI        0.344319    0.238279    0.412393     0.004307
NI1421   NI        0.344266    0.272501    0.377273     0.004307
NI1422   NI        0.377714    0.240504    0.377481     0.004307
NI1423   NI        0.378019    0.272774    0.413227     0.004307
NI1424   NI        0.412472    0.242534    0.411606     0.004307
NI1425   NI        0.411489    0.274582    0.377399     0.004307
NI1426   NI        0.446981    0.241513    0.374698     0.004307
NI1427   NI        0.446067    0.275527    0.411419     0.004307
NI1428   NI        0.479187    0.242687    0.407153     0.004307
NI1429   NI        0.479850    0.275813    0.373617     0.004307
NI1430   NI        0.514957    0.239261    0.373824     0.004307
NI1431   NI        0.511975    0.273935    0.408292     0.004307
NI1432   NI        0.549107    0.242705    0.408420     0.004307
NI1433   NI        0.549978    0.274237    0.375253     0.004307
NI1434   NI        0.582255    0.238451    0.372539     0.004307
NI1435   NI        0.582161    0.274390    0.408035     0.004307
NI1436   NI        0.615531    0.237999    0.410904     0.004307
NI1437   NI        0.617635    0.271708    0.375174     0.004307
NI1438   NI        0.652474    0.241356    0.376089     0.004307
NI1439   NI        0.653109    0.276248    0.408755     0.004307
NI1440   NI        0.687780    0.235751    0.410042     0.004307
NI1441   NI        0.684411    0.277649    0.374885     0.004307
AG1442   AG        0.722295    0.245619    0.372352     0.008887
NI1443   NI        0.719238    0.276819    0.410222     0.004307
AG1444   AG        0.770201    0.240372    0.402859     0.008887
AG1445   AG        0.764816    0.281208    0.366357     0.008887
AG1446   AG        0.827889    0.232320    0.384707     0.008887
AG1447   AG        0.808619    0.279935    0.404234     0.008887
AG1448   AG        0.043556    0.296982    0.399398     0.008887
AG1449   AG        0.046763    0.324048    0.352484     0.008887
AG1450   AG        0.093513    0.302362    0.377137     0.008887
AG1451   AG        0.096552    0.343820    0.409758     0.008887
AG1452   AG        0.135238    0.306440    0.411629     0.008887
NI1453   NI        0.141820    0.343526    0.378370     0.004307
NI1454   NI        0.175658    0.308201    0.376282     0.004307
NI1455   NI        0.175531    0.340147    0.409289     0.004307
NI1456   NI        0.209273    0.303905    0.408754     0.004307
NI1457   NI        0.210093    0.337741    0.374216     0.004307
NI1458   NI        0.242691    0.305514    0.376209     0.004307
NI1459   NI        0.241964    0.339590    0.407096     0.004307
NI1460   NI        0.276204    0.304739    0.411316     0.004307
NI1461   NI        0.275986    0.338141    0.376489     0.004307
NI1462   NI        0.307947    0.305280    0.372603     0.004307
NI1463   NI        0.308393    0.339592    0.410421     0.004307
NI1464   NI        0.343330    0.307324    0.411302     0.004307
NI1465   NI        0.342202    0.339842    0.376565     0.004307
NI1466   NI        0.376232    0.304814    0.379214     0.004307
NI1467   NI        0.376360    0.341793    0.410705     0.004307
NI1468   NI        0.412327    0.308944    0.411345     0.004307
NI1469   NI        0.410763    0.338389    0.375692     0.004307
NI1470   NI        0.446048    0.305180    0.374685     0.004307
NI1471   NI        0.446340    0.339092    0.408938     0.004307
NI1472   NI        0.478579    0.309104    0.412249     0.004307
NI1473   NI        0.480859    0.341000    0.376540     0.004307
NI1474   NI        0.512502    0.310692    0.377397     0.004307
NI1475   NI        0.514799    0.343793    0.409839     0.004307
NI1476   NI        0.548347    0.306929    0.409326     0.004307
NI1477   NI        0.549102    0.342033    0.375757     0.004307
NI1478   NI        0.583518    0.308289    0.374197     0.004307
NI1479   NI        0.581622    0.342080    0.411042     0.004307
NI1480   NI        0.618537    0.307642    0.411485     0.004307
NI1481   NI        0.616631    0.342635    0.375260     0.004307
NI1482   NI        0.650241    0.309408    0.373822     0.004307
NI1483   NI        0.650970    0.339470    0.412664     0.004307
NI1484   NI        0.685064    0.308886    0.409972     0.004307
NI1485   NI        0.683673    0.343712    0.375019     0.004307
NI1486   NI        0.720187    0.311810    0.376751     0.004307
NI1487   NI        0.721098    0.344054    0.412427     0.004307
AG1488   AG        0.761725    0.305437    0.414385     0.008887
NI1489   NI        0.755506    0.344081    0.380057     0.004307
AG1490   AG        0.803091    0.321577    0.366676     0.008887
AG1491   AG        0.796814    0.348131    0.415222     0.008887
AG1492   AG        0.854142    0.318737    0.409521     0.008887
AG1493   AG        0.840399    0.361431    0.378383     0.008887
AG1494   AG        0.000769    0.382588    0.373848     0.008887
AG1495   AG        0.050740    0.366418    0.393885     0.008887
AG1496   AG        0.048808    0.419496    0.381292     0.008887
AG1497   AG        0.097109    0.356132    0.357884     0.008887
AG1498   AG        0.098886    0.397625    0.395637     0.008887
NI1499   NI        0.140483    0.375138    0.413994     0.004307
NI1500   NI        0.145189    0.410103    0.376401     0.004307
NI1501   NI        0.176671    0.374762    0.376048     0.004307
NI1502   NI        0.174944    0.405222    0.410951     0.004307
NI1503   NI        0.207806    0.372875    0.411099     0.004307
NI1504   NI        0.209469    0.408236    0.376391     0.004307
NI1505   NI        0.243133    0.372323    0.375319     0.004307
NI1506   NI        0.238468    0.406962    0.411114     0.004307
NI1507   NI        0.274794    0.371715    0.409312     0.004307
NI1508   NI        0.275590    0.409831    0.377365     0.004307
NI1509   NI        0.309429    0.376180    0.377427     0.004307
NI1510   NI        0.311379    0.408595    0.409353     0.004307
NI1511   NI        0.342628    0.375094    0.411038     0.004307
NI1512   NI        0.342605    0.406553    0.375660     0.004307
NI1513   NI        0.376459    0.373905    0.377218     0.004307
NI1514   NI        0.377295    0.407850    0.409502     0.004307
NI1515   NI        0.409229    0.373803    0.410841     0.004307
NI1516   NI        0.411656    0.409979    0.377979     0.004307
NI1517   NI        0.443195    0.373412    0.377611     0.004307
NI1518   NI        0.443863    0.409091    0.411994     0.004307
NI1519   NI        0.479513    0.373095    0.410801     0.004307
NI1520   NI        0.477980    0.410739    0.379192     0.004307
NI1521   NI        0.515338    0.373739    0.374937     0.004307
NI1522   NI        0.512406    0.409542    0.411010     0.004307
NI1523   NI        0.548229    0.375868    0.409427     0.004307
NI1524   NI        0.546149    0.410523    0.376755     0.004307
NI1525   NI        0.581564    0.376245    0.376558     0.004307
NI1526   NI        0.580843    0.409248    0.412116     0.004307
NI1527   NI        0.616664    0.377084    0.411070     0.004307
NI1528   NI        0.616600    0.410658    0.379664     0.004307
NI1529   NI        0.650731    0.376278    0.378159     0.004307
NI1530   NI        0.650680    0.410459    0.411215     0.004307
NI1531   NI        0.685597    0.372471    0.410335     0.004307
NI1532   NI        0.683484    0.409814    0.376745     0.004307
NI1533   NI        0.718869    0.376958    0.378485     0.004307
NI1534   NI        0.714935    0.408943    0.408991     0.004307
NI1535   NI        0.753531    0.380626    0.410609     0.004307
NI1536   NI        0.750060    0.411411    0.377217     0.004307
AG1537   AG        0.790112    0.383167    0.377424     0.008887
AG1538   AG        0.797501    0.395532    0.427157     0.008887
AG1539   AG        0.848421    0.371299    0.435351     0.008887
AG1540   AG        0.839575    0.409071    0.392692     0.008887
AG1541   AG        0.892108    0.401716    0.421332     0.008887
AG1542   AG        0.006149    0.433601    0.347044     0.008887
AG1543   AG        0.005550    0.481615    0.388562     0.008887
AG1544   AG        0.046862    0.460957    0.418791     0.008887
AG1545   AG        0.053346    0.468651    0.362213     0.008887
AG1546   AG        0.096536    0.451104    0.387208     0.008887
AG1547   AG        0.096593    0.487961    0.426047     0.008887
NI1548   NI        0.141843    0.441973    0.410008     0.004307
NI1549   NI        0.140115    0.475455    0.374899     0.004307
NI1550   NI        0.176890    0.443813    0.376388     0.004307
NI1551   NI        0.171689    0.477693    0.410422     0.004307
NI1552   NI        0.207542    0.445099    0.412530     0.004307
NI1553   NI        0.206217    0.478415    0.376189     0.004307
NI1554   NI        0.242992    0.444448    0.376320     0.004307
NI1555   NI        0.242695    0.476763    0.411068     0.004307
NI1556   NI        0.273889    0.443292    0.412984     0.004307
NI1557   NI        0.272930    0.477959    0.377877     0.004307
NI1558   NI        0.307539    0.443530    0.376852     0.004307
NI1559   NI        0.306735    0.476013    0.412360     0.004307
NI1560   NI        0.341136    0.442504    0.410783     0.004307
NI1561   NI        0.341752    0.479389    0.378265     0.004307
NI1562   NI        0.374613    0.442601    0.378092     0.004307
NI1563   NI        0.378074    0.477843    0.412866     0.004307
NI1564   NI        0.409330    0.443155    0.410085     0.004307
NI1565   NI        0.410656    0.481538    0.376841     0.004307
NI1566   NI        0.444294    0.444818    0.378655     0.004307
NI1567   NI        0.441893    0.479483    0.413891     0.004307
NI1568   NI        0.476130    0.445293    0.412509     0.004307
NI1569   NI        0.478132    0.477453    0.376064     0.004307
NI1570   NI        0.511403    0.443518    0.377772     0.004307
NI1571   NI        0.511048    0.480241    0.413664     0.004307
NI1572   NI        0.544991    0.445394    0.412835     0.004307
NI1573   NI        0.544412    0.475821    0.377645     0.004307
NI1574   NI        0.582302    0.444208    0.378054     0.004307
NI1575   NI        0.580076    0.477774    0.412221     0.004307
NI1576   NI        0.613523    0.442843    0.412292     0.004307
NI1577   NI        0.615827    0.478918    0.378265     0.004307
NI1578   NI        0.646211    0.445710    0.378128     0.004307
NI1579   NI        0.647310    0.476923    0.410899     0.004307
NI1580   NI        0.683779    0.443372    0.410000     0.004307
NI1581   NI        0.680303    0.479705    0.379781     0.004307
NI1582   NI        0.714881    0.445048    0.376929     0.004307
NI1583   NI        0.715007    0.477524    0.413382     0.004307
NI1584   NI        0.746971    0.444309    0.411401     0.004307
NI1585   NI        0.747513    0.476817    0.380577     0.004307
AG1586   AG        0.793314    0.435772    0.387246     0.008887
AG1587   AG        0.793904    0.490226    0.400391     0.008887
AG1588   AG        0.838158    0.462616    0.404777     0.008887
AG1589   AG        0.837448    0.501391    0.353405     0.008887
AG1590   AG        0.889995    0.436625    0.374814     0.008887
AG1591   AG        0.882644    0.491214    0.391379     0.008887
AG1592   AG        0.054932    0.504970    0.402549     0.008887
AG1593   AG        0.030509    0.554929    0.392889     0.008887
AG1594   AG        0.097497    0.499095    0.371400     0.008887
AG1595   AG        0.097148    0.535735    0.413879     0.008887
NI1596   NI        0.137986    0.508475    0.407656     0.004307
NI1597   NI        0.134162    0.539831    0.374375     0.004307
NI1598   NI        0.173591    0.509466    0.374529     0.004307
NI1599   NI        0.170926    0.542449    0.409441     0.004307
NI1600   NI        0.207513    0.509799    0.409552     0.004307
NI1601   NI        0.206848    0.546259    0.376335     0.004307
NI1602   NI        0.240413    0.513466    0.377807     0.004307
NI1603   NI        0.240056    0.546634    0.408404     0.004307
NI1604   NI        0.277948    0.509951    0.412068     0.004307
NI1605   NI        0.274991    0.545297    0.377927     0.004307
NI1606   NI        0.309004    0.513072    0.375704     0.004307
NI1607   NI        0.307764    0.546798    0.409713     0.004307
NI1608   NI        0.340359    0.509245    0.412521     0.004307
NI1609   NI        0.342800    0.546917    0.378198     0.004307
NI1610   NI        0.374651    0.512274    0.379938     0.004307
NI1611   NI        0.374510    0.544825    0.413313     0.004307
NI1612   NI        0.409312    0.512208    0.411989     0.004307
NI1613   NI        0.411133    0.543975    0.376697     0.004307
NI1614   NI        0.445703    0.512926    0.377964     0.004307
NI1615   NI        0.444901    0.546213    0.412873     0.004307
NI1616   NI        0.479890    0.513030    0.412837     0.004307
NI1617   NI        0.481415    0.549110    0.379924     0.004307
NI1618   NI        0.512533    0.513132    0.378147     0.004307
NI1619   NI        0.516253    0.547995    0.411567     0.004307
NI1620   NI        0.545015    0.513217    0.413912     0.004307
NI1621   NI        0.546784    0.547657    0.377695     0.004307
NI1622   NI        0.579020    0.511384    0.377604     0.004307
NI1623   NI        0.579591    0.547537    0.411149     0.004307
NI1624   NI        0.612990    0.513743    0.409509     0.004307
NI1625   NI        0.613346    0.548376    0.379408     0.004307
NI1626   NI        0.646995    0.514008    0.380391     0.004307
NI1627   NI        0.648645    0.545960    0.413022     0.004307
NI1628   NI        0.679456    0.513250    0.413737     0.004307
NI1629   NI        0.680935    0.546255    0.379347     0.004307
NI1630   NI        0.715101    0.512129    0.378013     0.004307
NI1631   NI        0.715537    0.545045    0.414405     0.004307
NI1632   NI        0.749897    0.509018    0.413537     0.004307
NI1633   NI        0.751792    0.543926    0.383769     0.004307
AG1634   AG        0.794354    0.529755    0.362262     0.008887
AG1635   AG        0.793456    0.541372    0.417020     0.008887
AG1636   AG        0.841298    0.521414    0.403127     0.008887
AG1637   AG        0.849076    0.556172    0.358444     0.008887
AG1638   AG        0.034753    0.598615    0.431844     0.008887
AG1639   AG        0.077219    0.586956    0.397674     0.008887
AG1640   AG        0.076823    0.632541    0.429771     0.008887
AG1641   AG        0.132306    0.578184    0.410939     0.008887
AG1642   AG        0.118082    0.625297    0.391321     0.008887
NI1643   NI        0.169536    0.574595    0.376028     0.004307
NI1644   NI        0.168955    0.613613    0.409341     0.004307
NI1645   NI        0.204921    0.579922    0.408066     0.004307
NI1646   NI        0.204615    0.615263    0.378920     0.004307
NI1647   NI        0.239708    0.583721    0.377121     0.004307
NI1648   NI        0.242535    0.614862    0.414235     0.004307
NI1649   NI        0.276045    0.579465    0.409806     0.004307
NI1650   NI        0.272421    0.616399    0.380568     0.004307
NI1651   NI        0.309360    0.579140    0.376218     0.004307
NI1652   NI        0.308798    0.611640    0.412624     0.004307
NI1653   NI        0.341885    0.579898    0.408895     0.004307
NI1654   NI        0.341885    0.614686    0.376022     0.004307
NI1655   NI        0.378295    0.580981    0.379078     0.004307
NI1656   NI        0.377584    0.613021    0.411995     0.004307
NI1657   NI        0.413127    0.579597    0.414157     0.004307
NI1658   NI        0.412463    0.611701    0.377576     0.004307
NI1659   NI        0.445140    0.579478    0.378381     0.004307
NI1660   NI        0.444668    0.612121    0.414025     0.004307
NI1661   NI        0.478919    0.580761    0.413497     0.004307
NI1662   NI        0.478419    0.614409    0.378642     0.004307
NI1663   NI        0.514777    0.582479    0.377530     0.004307
NI1664   NI        0.513474    0.612389    0.414620     0.004307
NI1665   NI        0.547612    0.583869    0.411964     0.004307
NI1666   NI        0.547641    0.614142    0.378933     0.004307
NI1667   NI        0.581827    0.580370    0.377895     0.004307
NI1668   NI        0.582619    0.614718    0.411411     0.004307
NI1669   NI        0.614515    0.579769    0.413492     0.004307
NI1670   NI        0.616508    0.616110    0.377652     0.004307
NI1671   NI        0.649403    0.580337    0.380587     0.004307
NI1672   NI        0.648869    0.614874    0.412913     0.004307
NI1673   NI        0.683243    0.576733    0.413774     0.004307
NI1674   NI        0.681272    0.613297    0.380927     0.004307
NI1675   NI        0.718375    0.578586    0.382175     0.004307
NI1676   NI        0.716113    0.611643    0.411996     0.004307
AG1677   AG        0.757116    0.583570    0.417527     0.008887
AG1678   AG        0.767958    0.624421    0.379859     0.008887
AG1679   AG        0.803158    0.580766    0.381974     0.008887
AG1680   AG        0.811534    0.619158    0.418364     0.008887
AG1681   AG        0.841660    0.573109    0.413327     0.008887
AG1682   AG        0.075228    0.666184    0.388670     0.008887
AG1683   AG        0.114738    0.670815    0.424592     0.008887
AG1684   AG        0.112876    0.704031    0.379219     0.008887
AG1685   AG        0.155210    0.658773    0.390261     0.008887
AG1686   AG        0.153050    0.704691    0.417877     0.008887
NI1687   NI        0.208293    0.649130    0.411133     0.004307
AG1688   AG        0.197738    0.688897    0.383743     0.008887
NI1689   NI        0.239316    0.649621    0.377203     0.004307
NI1690   NI        0.241769    0.681071    0.409353     0.004307
NI1691   NI        0.276112    0.649586    0.412290     0.004307
NI1692   NI        0.271815    0.683337    0.374533     0.004307
NI1693   NI        0.308224    0.647597    0.374224     0.004307
NI1694   NI        0.309355    0.679415    0.415285     0.004307
NI1695   NI        0.343506    0.646865    0.413642     0.004307
NI1696   NI        0.343488    0.678368    0.377828     0.004307
NI1697   NI        0.377445    0.644360    0.380332     0.004307
NI1698   NI        0.378555    0.676551    0.415729     0.004307
NI1699   NI        0.412870    0.647095    0.414541     0.004307
NI1700   NI        0.410551    0.680498    0.378594     0.004307
NI1701   NI        0.443562    0.646765    0.379672     0.004307
NI1702   NI        0.445207    0.678853    0.414271     0.004307
NI1703   NI        0.481101    0.646000    0.414717     0.004307
NI1704   NI        0.480380    0.678574    0.380870     0.004307
NI1705   NI        0.512785    0.644762    0.379475     0.004307
NI1706   NI        0.512191    0.678895    0.415305     0.004307
NI1707   NI        0.548284    0.647992    0.413362     0.004307
NI1708   NI        0.545734    0.680756    0.381121     0.004307
NI1709   NI        0.580851    0.646837    0.378791     0.004307
NI1710   NI        0.578479    0.682152    0.414356     0.004307
NI1711   NI        0.615009    0.648798    0.413835     0.004307
NI1712   NI        0.614529    0.682120    0.379418     0.004307
NI1713   NI        0.649146    0.649116    0.379502     0.004307
NI1714   NI        0.649549    0.681086    0.413429     0.004307
NI1715   NI        0.686487    0.649838    0.412211     0.004307
AG1716   AG        0.689632    0.689778    0.384862     0.008887
AG1717   AG        0.726519    0.655732    0.385072     0.008887
AG1718   AG        0.735592    0.701169    0.423095     0.008887
AG1719   AG        0.769393    0.661772    0.419790     0.008887
AG1720   AG        0.768583    0.699856    0.382684     0.008887
AG1721   AG        0.811385    0.661962    0.380963     0.008887
AG1722   AG        0.113484    0.755145    0.413083     0.008887
AG1723   AG        0.150092    0.742961    0.376182     0.008887
AG1724   AG        0.159959    0.787582    0.407847     0.008887
AG1725   AG        0.193177    0.737330    0.407642     0.008887
AG1726   AG        0.183445    0.789448    0.357169     0.008887
AG1727   AG        0.237559    0.725167    0.380857     0.008887
AG1728   AG        0.225133    0.783721    0.395355     0.008887
NI1729   NI        0.280180    0.714782    0.411684     0.004307
AG1730   AG        0.273951    0.762183    0.385032     0.008887
NI1731   NI        0.315967    0.717847    0.379543     0.004307
AG1732   AG        0.313202    0.754965    0.416059     0.008887
NI1733   NI        0.345677    0.713301    0.416402     0.004307
NI1734   NI        0.348271    0.752895    0.385531     0.004307
NI1735   NI        0.376617    0.713530    0.378889     0.004307
NI1736   NI        0.378844    0.747544    0.418030     0.004307
NI1737   NI        0.411660    0.712743    0.414183     0.004307
NI1738   NI        0.413585    0.747608    0.383361     0.004307
NI1739   NI        0.444521    0.712790    0.382256     0.004307
NI1740   NI        0.445606    0.746355    0.415481     0.004307
NI1741   NI        0.478069    0.711852    0.416483     0.004307
NI1742   NI        0.478133    0.747353    0.382861     0.004307
NI1743   NI        0.510810    0.712012    0.382348     0.004307
NI1744   NI        0.511991    0.748299    0.414279     0.004307
NI1745   NI        0.545880    0.714351    0.416030     0.004307
NI1746   NI        0.541269    0.746834    0.379610     0.004307
NI1747   NI        0.579369    0.716040    0.381082     0.004307
AG1748   AG        0.578838    0.757832    0.411008     0.008887
NI1749   NI        0.614203    0.716573    0.413687     0.004307
AG1750   AG        0.627085    0.766478    0.395442     0.008887
AG1751   AG        0.663607    0.729422    0.403174     0.008887
AG1752   AG        0.667058    0.787395    0.429174     0.008887
AG1753   AG        0.702098    0.745135    0.433628     0.008887
AG1754   AG        0.692808    0.779046    0.378714     0.008887
AG1755   AG        0.732008    0.738216    0.380496     0.008887
AG1756   AG        0.742222    0.784899    0.417691     0.008887
AG1757   AG        0.783626    0.746756    0.401211     0.008887
AG1758   AG        0.233770    0.826248    0.359553     0.008887
AG1759   AG        0.274234    0.821721    0.405148     0.008887
AG1760   AG        0.279779    0.805136    0.350719     0.008887
AG1761   AG        0.319768    0.849307    0.415678     0.008887
AG1762   AG        0.315706    0.798980    0.389925     0.008887
AG1763   AG        0.322689    0.839611    0.358836     0.008887
AG1764   AG        0.363050    0.795944    0.357818     0.008887
AG1765   AG        0.365305    0.828669    0.401352     0.008887
AG1766   AG        0.402904    0.789469    0.405741     0.008887
AG1767   AG        0.399373    0.840538    0.357564     0.008887
AG1768   AG        0.424788    0.788307    0.354481     0.008887
AG1769   AG        0.439174    0.825428    0.400053     0.008887
AG1770   AG        0.484066    0.789315    0.406710     0.008887
AG1771   AG        0.454610    0.836297    0.348021     0.008887
AG1772   AG        0.529793    0.793423    0.372543     0.008887
AG1773   AG        0.516943    0.835147    0.403703     0.008887
AG1774   AG        0.565584    0.812722    0.408006     0.008887
AG1775   AG        0.559196    0.847626    0.367150     0.008887
AG1776   AG        0.608908    0.814323    0.362522     0.008887
AG1777   AG        0.609840    0.858334    0.395180     0.008887
AG1778   AG        0.612720    0.806200    0.425110     0.008887
AG1779   AG        0.654165    0.817889    0.385501     0.008887
AG1780   AG        0.402110    0.870851    0.404213     0.008887
AG1781   AG        0.434464    0.887801    0.353976     0.008887
AG1782   AG        0.475571    0.868477    0.396795     0.008887
AG1783   AG        0.234906    0.045151    0.434814     0.008887
AG1784   AG        0.302417    0.037205    0.467578     0.008887
AG1785   AG        0.345529    0.046124    0.436144     0.008887
AG1786   AG        0.385047    0.010809    0.429936     0.008887
AG1787   AG        0.385853    0.052925    0.472016     0.008887
AG1788   AG        0.418197    0.003772    0.475581     0.008887
AG1789   AG        0.422917    0.046897    0.429960     0.008887
AG1790   AG        0.461872    0.007451    0.433781     0.008887
AG1791   AG        0.441036    0.053200    0.485062     0.008887
AG1792   AG        0.476552    0.016021    0.485771     0.008887
AG1793   AG        0.483798    0.056056    0.449111     0.008887
AG1794   AG        0.523977    0.014406    0.450315     0.008887
AG1795   AG        0.518590    0.050990    0.490957     0.008887
AG1796   AG        0.574703    0.040676    0.473925     0.008887
AG1797   AG        0.623664    0.028162    0.498460     0.008887
AG1798   AG        0.620168    0.031822    0.443231     0.008887
AG1799   AG        0.140074    0.115584    0.460716     0.008887
AG1800   AG        0.186226    0.063801    0.398465     0.008887
AG1801   AG        0.190622    0.079437    0.457778     0.008887
AG1802   AG        0.223392    0.117840    0.475773     0.008887
AG1803   AG        0.261679    0.077046    0.470176     0.008887
AG1804   AG        0.272803    0.125709    0.447439     0.008887
AG1805   AG        0.309973    0.087439    0.446737     0.008887
AG1806   AG        0.314576    0.130224    0.482371     0.008887
AG1807   AG        0.353701    0.095103    0.475513     0.008887
NI1808   NI        0.348898    0.140376    0.444634     0.004307
AG1809   AG        0.390257    0.095227    0.434822     0.008887
NI1810   NI        0.381531    0.137676    0.475073     0.004307
AG1811   AG        0.407943    0.095851    0.486228     0.008887
NI1812   NI        0.415998    0.138252    0.448826     0.004307
AG1813   AG        0.446317    0.094958    0.449601     0.008887
NI1814   NI        0.450525    0.139530    0.481424     0.004307
AG1815   AG        0.481022    0.095153    0.495259     0.008887
NI1816   NI        0.481116    0.134534    0.447703     0.004307
AG1817   AG        0.517701    0.099255    0.453492     0.008887
NI1818   NI        0.518873    0.143245    0.478059     0.004307
AG1819   AG        0.555467    0.090110    0.501329     0.008887
NI1820   NI        0.548924    0.140293    0.442260     0.004307
AG1821   AG        0.566922    0.092827    0.449580     0.008887
AG1822   AG        0.572088    0.136226    0.484756     0.008887
AG1823   AG        0.617251    0.079668    0.472153     0.008887
AG1824   AG        0.610912    0.130310    0.451624     0.008887
AG1825   AG        0.663082    0.066297    0.443189     0.008887
AG1826   AG        0.660383    0.116141    0.468542     0.008887
AG1827   AG        0.705690    0.103979    0.435152     0.008887
AG1828   AG        0.741692    0.112868    0.477911     0.008887
AG1829   AG        0.097249    0.158530    0.458614     0.008887
AG1830   AG        0.103750    0.155679    0.403874     0.008887
AG1831   AG        0.146421    0.117332    0.407224     0.008887
AG1832   AG        0.146610    0.167806    0.441315     0.008887
AG1833   AG        0.191856    0.160277    0.478413     0.008887
AG1834   AG        0.194899    0.189200    0.433299     0.008887
AG1835   AG        0.240871    0.165233    0.445928     0.008887
NI1836   NI        0.240167    0.205681    0.478563     0.004307
NI1837   NI        0.278140    0.170728    0.479678     0.004307
NI1838   NI        0.276561    0.203099    0.444708     0.004307
NI1839   NI        0.310870    0.170812    0.444881     0.004307
NI1840   NI        0.309908    0.204549    0.477696     0.004307
NI1841   NI        0.347904    0.172248    0.477246     0.004307
NI1842   NI        0.343871    0.205234    0.443667     0.004307
NI1843   NI        0.380990    0.173547    0.445134     0.004307
NI1844   NI        0.379534    0.206883    0.477526     0.004307
NI1845   NI        0.416327    0.172992    0.477768     0.004307
NI1846   NI        0.411937    0.206230    0.445857     0.004307
NI1847   NI        0.449503    0.174585    0.445729     0.004307
NI1848   NI        0.450491    0.206398    0.479154     0.004307
NI1849   NI        0.482672    0.173206    0.478140     0.004307
NI1850   NI        0.480443    0.210587    0.443283     0.004307
NI1851   NI        0.513622    0.173940    0.444845     0.004307
NI1852   NI        0.515344    0.208555    0.476167     0.004307
NI1853   NI        0.548223    0.177287    0.475300     0.004307
NI1854   NI        0.547082    0.209097    0.441267     0.004307
NI1855   NI        0.582046    0.174305    0.443744     0.004307
NI1856   NI        0.581645    0.210202    0.472487     0.004307
NI1857   NI        0.616355    0.174471    0.478405     0.004307
NI1858   NI        0.617937    0.203670    0.442646     0.004307
AG1859   AG        0.650857    0.162834    0.444630     0.008887
NI1860   NI        0.651658    0.205310    0.477150     0.004307
AG1861   AG        0.700174    0.150365    0.469250     0.008887
AG1862   AG        0.688741    0.200749    0.448490     0.008887
AG1863   AG        0.742982    0.151808    0.437410     0.008887
AG1864   AG        0.738044    0.192419    0.476803     0.008887
AG1865   AG        0.779855    0.152130    0.480215     0.008887
AG1866   AG        0.779075    0.194989    0.440029     0.008887
AG1867   AG        0.030714    0.240592    0.414107     0.008887
AG1868   AG        0.068753    0.197004    0.417158     0.008887
AG1869   AG        0.072342    0.245434    0.453542     0.008887
AG1870   AG        0.113583    0.207956    0.445630     0.008887
AG1871   AG        0.123508    0.260248    0.429717     0.008887
AG1872   AG        0.164920    0.229715    0.434555     0.008887
NI1873   NI        0.170348    0.266562    0.472795     0.004307
NI1874   NI        0.202405    0.232079    0.469664     0.004307
NI1875   NI        0.207417    0.270436    0.442053     0.004307
NI1876   NI        0.241628    0.236320    0.444752     0.004307
NI1877   NI        0.241006    0.267905    0.477212     0.004307
NI1878   NI        0.274121    0.238101    0.477522     0.004307
NI1879   NI        0.277793    0.271858    0.444269     0.004307
NI1880   NI        0.310172    0.237787    0.444431     0.004307
NI1881   NI        0.308951    0.272832    0.479253     0.004307
NI1882   NI        0.342066    0.239138    0.478019     0.004307
NI1883   NI        0.342880    0.272482    0.445598     0.004307
NI1884   NI        0.377475    0.241663    0.446592     0.004307
NI1885   NI        0.376649    0.275478    0.478348     0.004307
NI1886   NI        0.411051    0.242841    0.477839     0.004307
NI1887   NI        0.411119    0.273768    0.444959     0.004307
NI1888   NI        0.445727    0.241264    0.445310     0.004307
NI1889   NI        0.446164    0.273579    0.478744     0.004307
NI1890   NI        0.483605    0.240118    0.480511     0.004307
NI1891   NI        0.481620    0.271648    0.444923     0.004307
NI1892   NI        0.516328    0.242117    0.440950     0.004307
NI1893   NI        0.515893    0.273990    0.476490     0.004307
NI1894   NI        0.548368    0.240644    0.478996     0.004307
NI1895   NI        0.548817    0.277413    0.442148     0.004307
NI1896   NI        0.582138    0.243102    0.443407     0.004307
NI1897   NI        0.582282    0.273582    0.478201     0.004307
NI1898   NI        0.617482    0.238230    0.477284     0.004307
NI1899   NI        0.616451    0.272122    0.443225     0.004307
NI1900   NI        0.652646    0.238401    0.442290     0.004307
NI1901   NI        0.651065    0.271871    0.478103     0.004307
NI1902   NI        0.689187    0.241036    0.477867     0.004307
NI1903   NI        0.685198    0.273300    0.445097     0.004307
AG1904   AG        0.726766    0.237406    0.442914     0.008887
NI1905   NI        0.724107    0.274075    0.477392     0.004307
AG1906   AG        0.778707    0.226377    0.484952     0.008887
AG1907   AG        0.775833    0.264830    0.448977     0.008887
AG1908   AG        0.818867    0.232686    0.439222     0.008887
AG1909   AG        0.820536    0.261984    0.483995     0.008887
AG1910   AG        0.858826    0.279836    0.445113     0.008887
AG1911   AG        0.037793    0.286973    0.453109     0.008887
AG1912   AG        0.050880    0.337146    0.438773     0.008887
AG1913   AG        0.086841    0.295883    0.433695     0.008887
AG1914   AG        0.095549    0.333810    0.469808     0.008887
AG1915   AG        0.133454    0.299613    0.471711     0.008887
NI1916   NI        0.138917    0.340304    0.444239     0.004307
NI1917   NI        0.174800    0.305716    0.442550     0.004307
NI1918   NI        0.174184    0.338631    0.476424     0.004307
NI1919   NI        0.206529    0.303301    0.476409     0.004307
NI1920   NI        0.208289    0.337142    0.442825     0.004307
NI1921   NI        0.241535    0.304269    0.442992     0.004307
NI1922   NI        0.241428    0.339361    0.476961     0.004307
NI1923   NI        0.274434    0.304579    0.477779     0.004307
NI1924   NI        0.273315    0.339554    0.444563     0.004307
NI1925   NI        0.309736    0.305706    0.443065     0.004307
NI1926   NI        0.307120    0.341143    0.477542     0.004307
NI1927   NI        0.343755    0.307292    0.478865     0.004307
NI1928   NI        0.342636    0.340166    0.446312     0.004307
NI1929   NI        0.376412    0.309271    0.444074     0.004307
NI1930   NI        0.378410    0.339762    0.479770     0.004307
NI1931   NI        0.413024    0.304326    0.478816     0.004307
NI1932   NI        0.411265    0.341751    0.444578     0.004307
NI1933   NI        0.447211    0.306182    0.447325     0.004307
NI1934   NI        0.444983    0.340976    0.477000     0.004307
NI1935   NI        0.481497    0.305967    0.479120     0.004307
NI1936   NI        0.481355    0.342321    0.445765     0.004307
NI1937   NI        0.512572    0.308904    0.443573     0.004307
NI1938   NI        0.511523    0.340727    0.479372     0.004307
NI1939   NI        0.547370    0.308651    0.477223     0.004307
NI1940   NI        0.547267    0.341500    0.443020     0.004307
NI1941   NI        0.582268    0.308503    0.444309     0.004307
NI1942   NI        0.581011    0.340352    0.481043     0.004307
NI1943   NI        0.615752    0.305115    0.476863     0.004307
NI1944   NI        0.615068    0.342313    0.446466     0.004307
NI1945   NI        0.647954    0.307788    0.447544     0.004307
NI1946   NI        0.652232    0.344576    0.477746     0.004307
NI1947   NI        0.685026    0.307734    0.479849     0.004307
NI1948   NI        0.686556    0.340958    0.443997     0.004307
NI1949   NI        0.719545    0.309250    0.444869     0.004307
NI1950   NI        0.719966    0.344359    0.478566     0.004307
AG1951   AG        0.760372    0.309366    0.473529     0.008887
NI1952   NI        0.753769    0.346157    0.443683     0.004307
AG1953   AG        0.810025    0.306083    0.454120     0.008887
AG1954   AG        0.802478    0.319379    0.507431     0.008887
AG1955   AG        0.852988    0.292682    0.517373     0.008887
AG1956   AG        0.845816    0.333227    0.479543     0.008887
AG1957   AG        0.008662    0.373093    0.429239     0.008887
AG1958   AG        0.007887    0.411277    0.475820     0.008887
AG1959   AG        0.052709    0.374734    0.480234     0.008887
AG1960   AG        0.050986    0.406935    0.433002     0.008887
AG1961   AG        0.097933    0.382014    0.446815     0.008887
AG1962   AG        0.093462    0.422437    0.488401     0.008887
NI1963   NI        0.139812    0.372057    0.476319     0.004307
NI1964   NI        0.139219    0.410083    0.442365     0.004307
NI1965   NI        0.176400    0.371385    0.444504     0.004307
NI1966   NI        0.174113    0.408144    0.478189     0.004307
NI1967   NI        0.207392    0.371731    0.479682     0.004307
NI1968   NI        0.207479    0.408422    0.443088     0.004307
NI1969   NI        0.240340    0.373486    0.443086     0.004307
NI1970   NI        0.241585    0.405924    0.477969     0.004307
NI1971   NI        0.274260    0.373290    0.478532     0.004307
NI1972   NI        0.275180    0.405311    0.443138     0.004307
NI1973   NI        0.309936    0.374444    0.443373     0.004307
NI1974   NI        0.310860    0.408128    0.477603     0.004307
NI1975   NI        0.342438    0.371378    0.481503     0.004307
NI1976   NI        0.344882    0.407704    0.445388     0.004307
NI1977   NI        0.374543    0.372449    0.446426     0.004307
NI1978   NI        0.376212    0.410883    0.479668     0.004307
NI1979   NI        0.410763    0.374336    0.479343     0.004307
NI1980   NI        0.408940    0.408158    0.442162     0.004307
NI1981   NI        0.443805    0.376698    0.442831     0.004307
NI1982   NI        0.444592    0.408895    0.477959     0.004307
NI1983   NI        0.478796    0.375631    0.477786     0.004307
NI1984   NI        0.478629    0.408985    0.443658     0.004307
NI1985   NI        0.514804    0.376967    0.444192     0.004307
NI1986   NI        0.511467    0.407448    0.481166     0.004307
NI1987   NI        0.549212    0.373320    0.477229     0.004307
NI1988   NI        0.546362    0.408019    0.446342     0.004307
NI1989   NI        0.581811    0.376354    0.443653     0.004307
NI1990   NI        0.581823    0.408681    0.480485     0.004307
NI1991   NI        0.616530    0.373383    0.482719     0.004307
NI1992   NI        0.616988    0.410829    0.445800     0.004307
NI1993   NI        0.652115    0.372932    0.444362     0.004307
NI1994   NI        0.648800    0.407379    0.479931     0.004307
NI1995   NI        0.686003    0.374424    0.479135     0.004307
NI1996   NI        0.683571    0.408176    0.446821     0.004307
NI1997   NI        0.720589    0.378209    0.445368     0.004307
NI1998   NI        0.718268    0.409078    0.479670     0.004307
NI1999   NI        0.754469    0.379154    0.479842     0.004307
NI2000   NI        0.750416    0.412367    0.444176     0.004307
AG2001   AG        0.797367    0.356673    0.471772     0.008887
AG2002   AG        0.794024    0.414531    0.479293     0.008887
AG2003   AG        0.838115    0.386335    0.488142     0.008887
AG2004   AG        0.839588    0.423538    0.445595     0.008887
AG2005   AG        0.888890    0.365688    0.470896     0.008887
AG2006   AG        0.886948    0.421525    0.479988     0.008887
AG2007   AG        0.003004    0.427244    0.413676     0.008887
AG2008   AG        0.003979    0.465607    0.457992     0.008887
AG2009   AG        0.051429    0.452839    0.471367     0.008887
AG2010   AG        0.049651    0.501795    0.458057     0.008887
AG2011   AG        0.096192    0.436184    0.437881     0.008887
AG2012   AG        0.100000    0.475616    0.476922     0.008887
NI2013   NI        0.140031    0.441999    0.477291     0.004307
NI2014   NI        0.140445    0.476502    0.443491     0.004307
NI2015   NI        0.172661    0.440346    0.445238     0.004307
NI2016   NI        0.177011    0.475356    0.478278     0.004307
NI2017   NI        0.207955    0.441392    0.476389     0.004307
NI2018   NI        0.208822    0.476770    0.446162     0.004307
NI2019   NI        0.241636    0.438954    0.445807     0.004307
NI2020   NI        0.238493    0.475907    0.479299     0.004307
NI2021   NI        0.274287    0.442604    0.478775     0.004307
NI2022   NI        0.273732    0.476239    0.447162     0.004307
NI2023   NI        0.309066    0.442412    0.445521     0.004307
NI2024   NI        0.308502    0.477090    0.478600     0.004307
NI2025   NI        0.342752    0.441975    0.478064     0.004307
NI2026   NI        0.343328    0.478209    0.446485     0.004307
NI2027   NI        0.374191    0.443865    0.443725     0.004307
NI2028   NI        0.374538    0.479670    0.479955     0.004307
NI2029   NI        0.404674    0.446249    0.479643     0.004307
NI2030   NI        0.409937    0.480242    0.446968     0.004307
NI2031   NI        0.441042    0.440039    0.445864     0.004307
NI2032   NI        0.441575    0.475509    0.480098     0.004307
NI2033   NI        0.476134    0.441518    0.482057     0.004307
NI2034   NI        0.475171    0.479153    0.449798     0.004307
NI2035   NI        0.509872    0.445109    0.450004     0.004307
NI2036   NI        0.515145    0.478844    0.484007     0.004307
NI2037   NI        0.546852    0.445083    0.477346     0.004307
NI2038   NI        0.545167    0.478087    0.446238     0.004307
NI2039   NI        0.581999    0.443759    0.446765     0.004307
NI2040   NI        0.580387    0.480467    0.479642     0.004307
NI2041   NI        0.614327    0.443691    0.482288     0.004307
NI2042   NI        0.612724    0.479438    0.443883     0.004307
NI2043   NI        0.649263    0.445086    0.446563     0.004307
NI2044   NI        0.647687    0.477087    0.480552     0.004307
NI2045   NI        0.681059    0.442189    0.481614     0.004307
NI2046   NI        0.682705    0.475269    0.446563     0.004307
NI2047   NI        0.715890    0.443485    0.448202     0.004307
NI2048   NI        0.714370    0.476639    0.480738     0.004307
NI2049   NI        0.750618    0.444898    0.479548     0.004307
NI2050   NI        0.748718    0.478615    0.447367     0.004307
AG2051   AG        0.788808    0.449655    0.435408     0.008887
AG2052   AG        0.796429    0.463621    0.488760     0.008887
AG2053   AG        0.839741    0.436571    0.499625     0.008887
AG2054   AG        0.837102    0.475887    0.455079     0.008887
AG2055   AG        0.884463    0.455302    0.436930     0.008887
AG2056   AG        0.875960    0.478219    0.493592     0.008887
AG2057   AG        0.005686    0.516710    0.431386     0.008887
AG2058   AG        0.043418    0.546554    0.492920     0.008887
AG2059   AG        0.048498    0.545870    0.437276     0.008887
AG2060   AG        0.093358    0.531659    0.469625     0.008887
AG2061   AG        0.090178    0.578281    0.505420     0.008887
NI2062   NI        0.140839    0.506673    0.477804     0.004307
NI2063   NI        0.138030    0.538274    0.445660     0.004307
NI2064   NI        0.175677    0.509605    0.443393     0.004307
NI2065   NI        0.173247    0.542157    0.475505     0.004307
NI2066   NI        0.208566    0.510369    0.478450     0.004307
NI2067   NI        0.207412    0.542757    0.444293     0.004307
NI2068   NI        0.240333    0.512072    0.444475     0.004307
NI2069   NI        0.237797    0.544921    0.480148     0.004307
NI2070   NI        0.271009    0.512063    0.478082     0.004307
NI2071   NI        0.275694    0.544397    0.444456     0.004307
NI2072   NI        0.309693    0.511833    0.448091     0.004307
NI2073   NI        0.309331    0.545412    0.481568     0.004307
NI2074   NI        0.343716    0.513896    0.482545     0.004307
NI2075   NI        0.340645    0.545113    0.446118     0.004307
NI2076   NI        0.376471    0.512730    0.447205     0.004307
NI2077   NI        0.375016    0.546794    0.480613     0.004307
NI2078   NI        0.410270    0.513110    0.479979     0.004307
NI2079   NI        0.410097    0.548335    0.449249     0.004307
NI2080   NI        0.443489    0.511986    0.448068     0.004307
NI2081   NI        0.442398    0.543349    0.482876     0.004307
NI2082   NI        0.480093    0.511509    0.483127     0.004307
NI2083   NI        0.477713    0.543691    0.447998     0.004307
NI2084   NI        0.510857    0.511262    0.447865     0.004307
NI2085   NI        0.512118    0.544959    0.479112     0.004307
NI2086   NI        0.546559    0.511200    0.481001     0.004307
NI2087   NI        0.547112    0.547373    0.447186     0.004307
NI2088   NI        0.580930    0.511801    0.444263     0.004307
NI2089   NI        0.579395    0.544213    0.480245     0.004307
NI2090   NI        0.614933    0.510543    0.477066     0.004307
NI2091   NI        0.614964    0.545558    0.444835     0.004307
NI2092   NI        0.648086    0.511663    0.445083     0.004307
NI2093   NI        0.648027    0.544755    0.478866     0.004307
NI2094   NI        0.682512    0.512055    0.478455     0.004307
NI2095   NI        0.682444    0.546753    0.447751     0.004307
NI2096   NI        0.714850    0.510973    0.445810     0.004307
NI2097   NI        0.717833    0.543147    0.479835     0.004307
NI2098   NI        0.749477    0.509827    0.482159     0.004307
NI2099   NI        0.753420    0.542061    0.447592     0.004307
AG2100   AG        0.791722    0.504507    0.453009     0.008887
AG2101   AG        0.792570    0.543926    0.488866     0.008887
AG2102   AG        0.829867    0.506047    0.503410     0.008887
AG2103   AG        0.836295    0.534964    0.456052     0.008887
AG2104   AG        0.879700    0.506113    0.445465     0.008887
AG2105   AG        0.031550    0.636576    0.518968     0.008887
AG2106   AG        0.025407    0.643021    0.458760     0.008887
AG2107   AG        0.086093    0.581204    0.451418     0.008887
AG2108   AG        0.074588    0.624324    0.481737     0.008887
AG2109   AG        0.133124    0.575078    0.474678     0.008887
AG2110   AG        0.126095    0.615624    0.445749     0.008887
NI2111   NI        0.171333    0.577472    0.440904     0.004307
NI2112   NI        0.172651    0.609668    0.477661     0.004307
NI2113   NI        0.203873    0.576968    0.474775     0.004307
NI2114   NI        0.204138    0.612275    0.441217     0.004307
NI2115   NI        0.240032    0.578468    0.443912     0.004307
NI2116   NI        0.239177    0.611502    0.477271     0.004307
NI2117   NI        0.274772    0.577275    0.479315     0.004307
NI2118   NI        0.274978    0.612379    0.445693     0.004307
NI2119   NI        0.308208    0.578156    0.446074     0.004307
NI2120   NI        0.306978    0.612110    0.479734     0.004307
NI2121   NI        0.342341    0.579969    0.479667     0.004307
NI2122   NI        0.342305    0.611831    0.444756     0.004307
NI2123   NI        0.375090    0.578732    0.445115     0.004307
NI2124   NI        0.374183    0.612987    0.482386     0.004307
NI2125   NI        0.409056    0.580337    0.481438     0.004307
NI2126   NI        0.411365    0.614532    0.447095     0.004307
NI2127   NI        0.444971    0.579872    0.448237     0.004307
NI2128   NI        0.442683    0.612744    0.483299     0.004307
NI2129   NI        0.477883    0.579155    0.481860     0.004307
NI2130   NI        0.477908    0.612701    0.449053     0.004307
NI2131   NI        0.513572    0.579867    0.446962     0.004307
NI2132   NI        0.512465    0.612810    0.480518     0.004307
NI2133   NI        0.548364    0.581704    0.480937     0.004307
NI2134   NI        0.547292    0.615009    0.446491     0.004307
NI2135   NI        0.581272    0.578128    0.444837     0.004307
NI2136   NI        0.580838    0.613028    0.478272     0.004307
NI2137   NI        0.612944    0.578096    0.480999     0.004307
NI2138   NI        0.615419    0.614115    0.447299     0.004307
NI2139   NI        0.646994    0.581033    0.448216     0.004307
NI2140   NI        0.648515    0.612589    0.481441     0.004307
NI2141   NI        0.681924    0.579990    0.479579     0.004307
NI2142   NI        0.684882    0.611658    0.446216     0.004307
NI2143   NI        0.719085    0.578374    0.447308     0.004307
NI2144   NI        0.717897    0.615159    0.484405     0.004307
AG2145   AG        0.755521    0.579289    0.483099     0.008887
AG2146   AG        0.770976    0.621083    0.455859     0.008887
AG2147   AG        0.801959    0.580467    0.452997     0.008887
AG2148   AG        0.832643    0.622538    0.468079     0.008887
AG2149   AG        0.868631    0.579695    0.463004     0.008887
AG2150   AG        0.865272    0.621383    0.423427     0.008887
AG2151   AG        0.070506    0.677772    0.458804     0.008887
AG2152   AG        0.119012    0.664625    0.476733     0.008887
AG2153   AG        0.110982    0.719535    0.453280     0.008887
AG2154   AG        0.165610    0.651611    0.445489     0.008887
AG2155   AG        0.157150    0.702692    0.479321     0.008887
NI2156   NI        0.206091    0.643131    0.478166     0.004307
AG2157   AG        0.200482    0.690499    0.440062     0.008887
NI2158   NI        0.238875    0.649775    0.447062     0.004307
NI2159   NI        0.241906    0.685800    0.477419     0.004307
NI2160   NI        0.271932    0.647311    0.478414     0.004307
NI2161   NI        0.273785    0.681320    0.444106     0.004307
NI2162   NI        0.306902    0.648482    0.446647     0.004307
NI2163   NI        0.305765    0.679710    0.479783     0.004307
NI2164   NI        0.340506    0.645128    0.481756     0.004307
NI2165   NI        0.341667    0.679844    0.448781     0.004307
NI2166   NI        0.375204    0.646027    0.449162     0.004307
NI2167   NI        0.375562    0.677594    0.483407     0.004307
NI2168   NI        0.408970    0.646437    0.486105     0.004307
NI2169   NI        0.410504    0.676052    0.448911     0.004307
NI2170   NI        0.445616    0.648922    0.447873     0.004307
NI2171   NI        0.444033    0.679903    0.482133     0.004307
NI2172   NI        0.477662    0.646465    0.481821     0.004307
NI2173   NI        0.477365    0.679969    0.449482     0.004307
NI2174   NI        0.511485    0.646763    0.449706     0.004307
NI2175   NI        0.510604    0.681240    0.479897     0.004307
NI2176   NI        0.549208    0.646948    0.482297     0.004307
NI2177   NI        0.548664    0.681071    0.448891     0.004307
NI2178   NI        0.580701    0.646716    0.447192     0.004307
NI2179   NI        0.582321    0.684448    0.479515     0.004307
NI2180   NI        0.614465    0.646762    0.480977     0.004307
NI2181   NI        0.614783    0.683405    0.445603     0.004307
NI2182   NI        0.651041    0.647281    0.445781     0.004307
NI2183   NI        0.649738    0.681027    0.479945     0.004307
NI2184   NI        0.682846    0.643331    0.480530     0.004307
AG2185   AG        0.691078    0.685847    0.448481     0.008887
AG2186   AG        0.724698    0.645545    0.445462     0.008887
AG2187   AG        0.748441    0.689668    0.466266     0.008887
AG2188   AG        0.795960    0.661691    0.474917     0.008887
AG2189   AG        0.795196    0.706702    0.437899     0.008887
AG2190   AG        0.837726    0.669136    0.433009     0.008887
AG2191   AG        0.112046    0.768594    0.473875     0.008887
AG2192   AG        0.158290    0.747698    0.449959     0.008887
AG2193   AG        0.159015    0.801869    0.470764     0.008887
AG2194   AG        0.205003    0.732101    0.480732     0.008887
AG2195   AG        0.203430    0.774893    0.443461     0.008887
AG2196   AG        0.238471    0.729443    0.437048     0.008887
AG2197   AG        0.245080    0.765322    0.478570     0.008887
NI2198   NI        0.275561    0.714338    0.479749     0.004307
AG2199   AG        0.267279    0.781124    0.435954     0.008887
NI2200   NI        0.309359    0.713284    0.447673     0.004307
AG2201   AG        0.299718    0.757974    0.467394     0.008887
NI2202   NI        0.343846    0.712115    0.481106     0.004307
NI2203   NI        0.345036    0.745431    0.447769     0.004307
NI2204   NI        0.378034    0.711978    0.448857     0.004307
NI2205   NI        0.374642    0.749744    0.482738     0.004307
NI2206   NI        0.410986    0.712151    0.480147     0.004307
NI2207   NI        0.411449    0.747906    0.450352     0.004307
NI2208   NI        0.444788    0.713322    0.448478     0.004307
NI2209   NI        0.445975    0.750478    0.481545     0.004307
NI2210   NI        0.478309    0.716352    0.480565     0.004307
NI2211   NI        0.478721    0.750834    0.444119     0.004307
NI2212   NI        0.512743    0.712766    0.447958     0.004307
NI2213   NI        0.511678    0.746962    0.479446     0.004307
NI2214   NI        0.547287    0.713464    0.482491     0.004307
NI2215   NI        0.548251    0.747749    0.450267     0.004307
NI2216   NI        0.582394    0.717134    0.446620     0.004307
AG2217   AG        0.582739    0.755186    0.486144     0.008887
NI2218   NI        0.615168    0.718522    0.482141     0.004307
AG2219   AG        0.616625    0.761101    0.449791     0.008887
AG2220   AG        0.653028    0.720224    0.449181     0.008887
AG2221   AG        0.670556    0.764417    0.474506     0.008887
AG2222   AG        0.707385    0.724200    0.476086     0.008887
AG2223   AG        0.723853    0.782297    0.472445     0.008887
AG2224   AG        0.755250    0.743114    0.453458     0.008887
AG2225   AG        0.764212    0.763454    0.506332     0.008887
AG2226   AG        0.790076    0.716572    0.489389     0.008887
AG2227   AG        0.229543    0.818624    0.459232     0.008887
AG2228   AG        0.276183    0.808540    0.485289     0.008887
AG2229   AG        0.275918    0.852811    0.451173     0.008887
AG2230   AG        0.314524    0.804350    0.443490     0.008887
AG2231   AG        0.281927    0.857032    0.512601     0.008887
AG2232   AG        0.325327    0.793323    0.497745     0.008887
AG2233   AG        0.318450    0.847787    0.474413     0.008887
AG2234   AG        0.363054    0.790946    0.442805     0.008887
AG2235   AG        0.368827    0.829357    0.484067     0.008887
AG2236   AG        0.406746    0.786078    0.480595     0.008887
AG2237   AG        0.402843    0.831845    0.441063     0.008887
AG2238   AG        0.442115    0.788857    0.445641     0.008887
AG2239   AG        0.439914    0.835066    0.484059     0.008887
AG2240   AG        0.480376    0.791006    0.482136     0.008887
AG2241   AG        0.476519    0.831366    0.442339     0.008887
AG2242   AG        0.519761    0.787941    0.442845     0.008887
AG2243   AG        0.496686    0.839629    0.493659     0.008887
AG2244   AG        0.531239    0.797339    0.495754     0.008887
AG2245   AG        0.541582    0.837270    0.453305     0.008887
AG2246   AG        0.571121    0.795404    0.458181     0.008887
AG2247   AG        0.597270    0.843777    0.461395     0.008887
AG2248   AG        0.634563    0.805073    0.478388     0.008887
AG2249   AG        0.648318    0.847385    0.437021     0.008887
AG2250   AG        0.687374    0.820379    0.469197     0.008887
AG2251   AG        0.360710    0.868576    0.446115     0.008887
AG2252   AG        0.402178    0.872087    0.483975     0.008887
AG2253   AG        0.440712    0.872955    0.443742     0.008887
AG2254   AG        0.461870    0.882002    0.498757     0.008887
AG2255   AG        0.500967    0.877631    0.447962     0.008887
AG2256   AG        0.300925    0.029008    0.538988     0.008887
AG2257   AG        0.342155    0.041138    0.501002     0.008887
AG2258   AG        0.349175    0.041578    0.557659     0.008887
AG2259   AG        0.396089    0.049384    0.526429     0.008887
AG2260   AG        0.438308    0.009273    0.526081     0.008887
AG2261   AG        0.434410    0.050224    0.564749     0.008887
AG2262   AG        0.476870    0.052720    0.530473     0.008887
AG2263   AG        0.516565    0.041065    0.564488     0.008887
AG2264   AG        0.558374    0.042358    0.525927     0.008887
AG2265   AG        0.600519    0.036351    0.564733     0.008887
AG2266   AG        0.174801    0.105289    0.504454     0.008887
AG2267   AG        0.218323    0.069865    0.502444     0.008887
AG2268   AG        0.224094    0.113597    0.534874     0.008887
AG2269   AG        0.262460    0.072378    0.535138     0.008887
AG2270   AG        0.269098    0.121788    0.505423     0.008887
AG2271   AG        0.309151    0.082200    0.504748     0.008887
AG2272   AG        0.310797    0.130387    0.536150     0.008887
AG2273   AG        0.311328    0.082889    0.563514     0.008887
NI2274   NI        0.352233    0.139366    0.511240     0.004307
AG2275   AG        0.355516    0.094872    0.527092     0.008887
NI2276   NI        0.383843    0.136922    0.542834     0.004307
AG2277   AG        0.388823    0.083806    0.568934     0.008887
NI2278   NI        0.416956    0.136879    0.513212     0.004307
AG2279   AG        0.438541    0.090871    0.532042     0.008887
NI2280   NI        0.456611    0.137157    0.547355     0.004307
AG2281   AG        0.478812    0.086545    0.574973     0.008887
NI2282   NI        0.485986    0.141614    0.510974     0.004307
AG2283   AG        0.516124    0.087372    0.536855     0.008887
NI2284   NI        0.498423    0.131636    0.557691     0.004307
AG2285   AG        0.562928    0.080831    0.562632     0.008887
NI2286   NI        0.529877    0.134292    0.522847     0.004307
AG2287   AG        0.609990    0.081094    0.532880     0.008887
AG2288   AG        0.580313    0.128571    0.533936     0.008887
AG2289   AG        0.648051    0.072232    0.572960     0.008887
AG2290   AG        0.621384    0.124487    0.503565     0.008887
AG2291   AG        0.657250    0.073446    0.511278     0.008887
AG2292   AG        0.653699    0.119851    0.541657     0.008887
AG2293   AG        0.695752    0.113905    0.509986     0.008887
AG2294   AG        0.105211    0.197343    0.498444     0.008887
AG2295   AG        0.139969    0.156201    0.494665     0.008887
AG2296   AG        0.150088    0.195072    0.535106     0.008887
AG2297   AG        0.183488    0.152881    0.528613     0.008887
AG2298   AG        0.199005    0.204323    0.515340     0.008887
AG2299   AG        0.234902    0.164324    0.507816     0.008887
NI2300   NI        0.239665    0.202686    0.545666     0.004307
AG2301   AG        0.272059    0.164682    0.542036     0.008887
NI2302   NI        0.274677    0.204203    0.511229     0.004307
NI2303   NI        0.315118    0.171954    0.512794     0.004307
NI2304   NI        0.307814    0.202810    0.546864     0.004307
NI2305   NI        0.348057    0.170458    0.545319     0.004307
NI2306   NI        0.346729    0.205320    0.511178     0.004307
NI2307   NI        0.382781    0.174120    0.512695     0.004307
NI2308   NI        0.380847    0.207404    0.545988     0.004307
NI2309   NI        0.414188    0.172938    0.546666     0.004307
NI2310   NI        0.412374    0.208984    0.510056     0.004307
NI2311   NI        0.451075    0.172831    0.513584     0.004307
NI2312   NI        0.445427    0.207064    0.546206     0.004307
NI2313   NI        0.482399    0.175778    0.546234     0.004307
NI2314   NI        0.482115    0.207359    0.512725     0.004307
NI2315   NI        0.514607    0.175743    0.510269     0.004307
NI2316   NI        0.516764    0.209055    0.546221     0.004307
NI2317   NI        0.549419    0.171495    0.543033     0.004307
NI2318   NI        0.548267    0.209181    0.510852     0.004307
NI2319   NI        0.581714    0.174431    0.511089     0.004307
NI2320   NI        0.585487    0.205571    0.547112     0.004307
AG2321   AG        0.622627    0.164050    0.538995     0.008887
NI2322   NI        0.619940    0.207380    0.514311     0.004307
AG2323   AG        0.657396    0.159889    0.500118     0.008887
NI2324   NI        0.655032    0.203548    0.546893     0.004307
AG2325   AG        0.688845    0.157554    0.543626     0.008887
AG2326   AG        0.692720    0.198718    0.506994     0.008887
AG2327   AG        0.735010    0.150087    0.516090     0.008887
AG2328   AG        0.728914    0.195384    0.543694     0.008887
AG2329   AG        0.781651    0.184384    0.527280     0.008887
AG2330   AG        0.067177    0.239287    0.509164     0.008887
AG2331   AG        0.068924    0.244308    0.567939     0.008887
AG2332   AG        0.112916    0.237273    0.535580     0.008887
AG2333   AG        0.121473    0.247725    0.478376     0.008887
AG2334   AG        0.157404    0.203191    0.478203     0.008887
AG2335   AG        0.166624    0.247888    0.517730     0.008887
NI2336   NI        0.208945    0.240516    0.548387     0.004307
NI2337   NI        0.207982    0.271600    0.509322     0.004307
NI2338   NI        0.241276    0.238165    0.512881     0.004307
NI2339   NI        0.241509    0.272826    0.546004     0.004307
NI2340   NI        0.274731    0.238406    0.545901     0.004307
NI2341   NI        0.275740    0.270619    0.512655     0.004307
NI2342   NI        0.309685    0.235503    0.511067     0.004307
NI2343   NI        0.306373    0.273000    0.547425     0.004307
NI2344   NI        0.343631    0.238055    0.547741     0.004307
NI2345   NI        0.340108    0.271006    0.514920     0.004307
NI2346   NI        0.376086    0.241695    0.513503     0.004307
NI2347   NI        0.376602    0.272814    0.545786     0.004307
NI2348   NI        0.413341    0.240623    0.547085     0.004307
NI2349   NI        0.410456    0.273390    0.514008     0.004307
NI2350   NI        0.445903    0.242277    0.511841     0.004307
NI2351   NI        0.447343    0.274481    0.544038     0.004307
NI2352   NI        0.484390    0.238782    0.547456     0.004307
NI2353   NI        0.480836    0.274436    0.512145     0.004307
NI2354   NI        0.514917    0.241096    0.512891     0.004307
NI2355   NI        0.515000    0.274203    0.545991     0.004307
NI2356   NI        0.550286    0.241491    0.546217     0.004307
NI2357   NI        0.548183    0.274833    0.512289     0.004307
NI2358   NI        0.587025    0.237710    0.510978     0.004307
NI2359   NI        0.586085    0.271453    0.547402     0.004307
NI2360   NI        0.620993    0.238023    0.549731     0.004307
NI2361   NI        0.619376    0.272948    0.513692     0.004307
NI2362   NI        0.656025    0.238936    0.514959     0.004307
NI2363   NI        0.655779    0.272051    0.548149     0.004307
NI2364   NI        0.692251    0.235215    0.546824     0.004307
NI2365   NI        0.688061    0.273756    0.511722     0.004307
AG2366   AG        0.725779    0.236101    0.508136     0.008887
AG2367   AG        0.729523    0.271826    0.548248     0.008887
AG2368   AG        0.769391    0.235039    0.547045     0.008887
AG2369   AG        0.772615    0.274083    0.508718     0.008887
AG2370   AG        0.818063    0.227095    0.525146     0.008887
AG2371   AG        0.810179    0.236460    0.584582     0.008887
AG2372   AG        0.047106    0.283807    0.536747     0.008887
AG2373   AG        0.039651    0.323532    0.496253     0.008887
AG2374   AG        0.080387    0.285021    0.486003     0.008887
AG2375   AG        0.088354    0.319862    0.529211     0.008887
AG2376   AG        0.129036    0.287120    0.519469     0.008887
NI2377   NI        0.137225    0.336831    0.510074     0.004307
NI2378   NI        0.173914    0.302699    0.508298     0.004307
NI2379   NI        0.173297    0.338953    0.541986     0.004307
NI2380   NI        0.207081    0.305441    0.543798     0.004307
NI2381   NI        0.207920    0.338086    0.510156     0.004307
NI2382   NI        0.241850    0.305452    0.509043     0.004307
NI2383   NI        0.241006    0.341720    0.546052     0.004307
NI2384   NI        0.273224    0.308115    0.546613     0.004307
NI2385   NI        0.273840    0.341769    0.514923     0.004307
NI2386   NI        0.310612    0.307044    0.512097     0.004307
NI2387   NI        0.308905    0.341178    0.544909     0.004307
NI2388   NI        0.341571    0.303827    0.548492     0.004307
NI2389   NI        0.344314    0.340224    0.515635     0.004307
NI2390   NI        0.374157    0.307289    0.512249     0.004307
NI2391   NI        0.376664    0.340546    0.547405     0.004307
NI2392   NI        0.411588    0.308886    0.546011     0.004307
NI2393   NI        0.411904    0.343732    0.511305     0.004307
NI2394   NI        0.446459    0.309168    0.512714     0.004307
NI2395   NI        0.445206    0.342052    0.547689     0.004307
NI2396   NI        0.481355    0.309378    0.545729     0.004307
NI2397   NI        0.479533    0.343167    0.513399     0.004307
NI2398   NI        0.513822    0.306567    0.510459     0.004307
NI2399   NI        0.515899    0.338769    0.547337     0.004307
NI2400   NI        0.551413    0.307649    0.547883     0.004307
NI2401   NI        0.550354    0.339826    0.513045     0.004307
NI2402   NI        0.584782    0.306403    0.511930     0.004307
NI2403   NI        0.585522    0.340939    0.548644     0.004307
NI2404   NI        0.618004    0.304741    0.549760     0.004307
NI2405   NI        0.615828    0.338402    0.513969     0.004307
NI2406   NI        0.650900    0.306833    0.511877     0.004307
NI2407   NI        0.650532    0.339835    0.546398     0.004307
NI2408   NI        0.688116    0.307380    0.546498     0.004307
NI2409   NI        0.685351    0.340249    0.510324     0.004307
NI2410   NI        0.723210    0.309301    0.513181     0.004307
NI2411   NI        0.719534    0.345404    0.545214     0.004307
AG2412   AG        0.763803    0.312192    0.545984     0.008887
NI2413   NI        0.756714    0.343382    0.509625     0.004307
AG2414   AG        0.808509    0.279881    0.546374     0.008887
AG2415   AG        0.810288    0.318598    0.581809     0.008887
AG2416   AG        0.850439    0.282229    0.577242     0.008887
AG2417   AG        0.836063    0.342140    0.541936     0.008887
AG2418   AG        0.049976    0.362023    0.532966     0.008887
AG2419   AG        0.045493    0.418840    0.516318     0.008887
AG2420   AG        0.098810    0.369123    0.506976     0.008887
AG2421   AG        0.096830    0.410636    0.540521     0.008887
NI2422   NI        0.135689    0.374707    0.542540     0.004307
NI2423   NI        0.134694    0.408314    0.506992     0.004307
NI2424   NI        0.171210    0.373340    0.510600     0.004307
NI2425   NI        0.171920    0.406161    0.543694     0.004307
NI2426   NI        0.206753    0.372673    0.544866     0.004307
NI2427   NI        0.209056    0.408415    0.513183     0.004307
NI2428   NI        0.242315    0.372413    0.511578     0.004307
NI2429   NI        0.242625    0.406063    0.546499     0.004307
NI2430   NI        0.276676    0.372657    0.548971     0.004307
NI2431   NI        0.274269    0.407254    0.510484     0.004307
NI2432   NI        0.307761    0.373038    0.512974     0.004307
NI2433   NI        0.309803    0.408255    0.544724     0.004307
NI2434   NI        0.342357    0.374476    0.543089     0.004307
NI2435   NI        0.342445    0.409178    0.511333     0.004307
NI2436   NI        0.375917    0.375527    0.510816     0.004307
NI2437   NI        0.376962    0.409362    0.544277     0.004307
NI2438   NI        0.411320    0.375729    0.546322     0.004307
NI2439   NI        0.410955    0.410028    0.511741     0.004307
NI2440   NI        0.447414    0.375807    0.516827     0.004307
NI2441   NI        0.445944    0.409698    0.547377     0.004307
NI2442   NI        0.481706    0.373608    0.547436     0.004307
NI2443   NI        0.480614    0.407622    0.515991     0.004307
NI2444   NI        0.514610    0.374779    0.516870     0.004307
NI2445   NI        0.512958    0.407197    0.549143     0.004307
NI2446   NI        0.548950    0.372354    0.546564     0.004307
NI2447   NI        0.550819    0.407731    0.515922     0.004307
NI2448   NI        0.583234    0.372062    0.512784     0.004307
NI2449   NI        0.582382    0.407142    0.547668     0.004307
NI2450   NI        0.617459    0.373557    0.546890     0.004307
NI2451   NI        0.615115    0.408910    0.515009     0.004307
NI2452   NI        0.653902    0.376684    0.514383     0.004307
NI2453   NI        0.650609    0.408462    0.547511     0.004307
NI2454   NI        0.684322    0.376704    0.549625     0.004307
NI2455   NI        0.684991    0.408977    0.512923     0.004307
NI2456   NI        0.717482    0.377068    0.513576     0.004307
NI2457   NI        0.717477    0.409948    0.546437     0.004307
NI2458   NI        0.753572    0.376579    0.545353     0.004307
NI2459   NI        0.753215    0.412614    0.511344     0.004307
AG2460   AG        0.795607    0.375219    0.523691     0.008887
AG2461   AG        0.806840    0.389971    0.572994     0.008887
AG2462   AG        0.854551    0.365705    0.585448     0.008887
AG2463   AG        0.854053    0.396373    0.537949     0.008887
AG2464   AG        0.003658    0.453046    0.512277     0.008887
AG2465   AG        0.042487    0.461404    0.551709     0.008887
AG2466   AG        0.044224    0.491408    0.507018     0.008887
AG2467   AG        0.093011    0.462888    0.528684     0.008887
AG2468   AG        0.083920    0.497756    0.571240     0.008887
NI2469   NI        0.139357    0.439116    0.538652     0.004307
NI2470   NI        0.140093    0.473367    0.508792     0.004307
NI2471   NI        0.175393    0.441423    0.510820     0.004307
NI2472   NI        0.172511    0.473393    0.545018     0.004307
NI2473   NI        0.208051    0.439235    0.544617     0.004307
NI2474   NI        0.208146    0.476115    0.511842     0.004307
NI2475   NI        0.239954    0.442520    0.510838     0.004307
NI2476   NI        0.239547    0.476724    0.547705     0.004307
NI2477   NI        0.273275    0.440674    0.543844     0.004307
NI2478   NI        0.271155    0.477883    0.511609     0.004307
NI2479   NI        0.307425    0.442400    0.511056     0.004307
NI2480   NI        0.304198    0.473717    0.546811     0.004307
NI2481   NI        0.341415    0.442412    0.547184     0.004307
NI2482   NI        0.339899    0.477292    0.515061     0.004307
NI2483   NI        0.373115    0.444199    0.513994     0.004307
NI2484   NI        0.374466    0.476726    0.547904     0.004307
NI2485   NI        0.412217    0.442549    0.545811     0.004307
NI2486   NI        0.409445    0.476551    0.514777     0.004307
NI2487   NI        0.443536    0.441527    0.512854     0.004307
NI2488   NI        0.444789    0.476024    0.547301     0.004307
NI2489   NI        0.480083    0.443079    0.547772     0.004307
NI2490   NI        0.479619    0.475482    0.513213     0.004307
NI2491   NI        0.515019    0.443128    0.513657     0.004307
NI2492   NI        0.514278    0.474164    0.547586     0.004307
NI2493   NI        0.548303    0.442638    0.548496     0.004307
NI2494   NI        0.549564    0.475117    0.514666     0.004307
NI2495   NI        0.581559    0.442292    0.514985     0.004307
NI2496   NI        0.583083    0.478338    0.548115     0.004307
NI2497   NI        0.616307    0.445154    0.550424     0.004307
NI2498   NI        0.615894    0.477423    0.516595     0.004307
NI2499   NI        0.648416    0.441345    0.513373     0.004307
NI2500   NI        0.648932    0.477929    0.547889     0.004307
NI2501   NI        0.683187    0.442322    0.549078     0.004307
NI2502   NI        0.683279    0.476023    0.516357     0.004307
NI2503   NI        0.716400    0.442381    0.513477     0.004307
NI2504   NI        0.717359    0.474940    0.548868     0.004307
NI2505   NI        0.755715    0.445031    0.546426     0.004307
NI2506   NI        0.752722    0.475698    0.513246     0.004307
AG2507   AG        0.801786    0.426422    0.532736     0.008887
AG2508   AG        0.795457    0.483668    0.537560     0.008887
AG2509   AG        0.848699    0.424029    0.586126     0.008887
AG2510   AG        0.849553    0.475342    0.545331     0.008887
AG2511   AG        0.886383    0.437577    0.531264     0.008887
AG2512   AG        0.050939    0.534531    0.553860     0.008887
AG2513   AG        0.038504    0.584042    0.529885     0.008887
AG2514   AG        0.091245    0.516990    0.518888     0.008887
AG2515   AG        0.082316    0.576826    0.567065     0.008887
NI2516   NI        0.137803    0.505203    0.542832     0.004307
NI2517   NI        0.135506    0.537985    0.508990     0.004307
NI2518   NI        0.174052    0.508947    0.510216     0.004307
NI2519   NI        0.168542    0.542524    0.548080     0.004307
NI2520   NI        0.203592    0.509418    0.545154     0.004307
NI2521   NI        0.203147    0.544275    0.512757     0.004307
NI2522   NI        0.237397    0.508410    0.512465     0.004307
NI2523   NI        0.236903    0.545731    0.546547     0.004307
NI2524   NI        0.272705    0.510803    0.546567     0.004307
NI2525   NI        0.271624    0.542620    0.512735     0.004307
NI2526   NI        0.306053    0.510108    0.515728     0.004307
NI2527   NI        0.306587    0.543203    0.546971     0.004307
NI2528   NI        0.340741    0.511078    0.547776     0.004307
NI2529   NI        0.342464    0.545160    0.514053     0.004307
NI2530   NI        0.376711    0.510875    0.513751     0.004307
NI2531   NI        0.375074    0.544312    0.547451     0.004307
NI2532   NI        0.409395    0.511935    0.548709     0.004307
NI2533   NI        0.408328    0.544796    0.515742     0.004307
NI2534   NI        0.442060    0.511048    0.515054     0.004307
NI2535   NI        0.444327    0.544231    0.547043     0.004307
NI2536   NI        0.479758    0.510870    0.546116     0.004307
NI2537   NI        0.478665    0.544928    0.515151     0.004307
NI2538   NI        0.515110    0.510696    0.514198     0.004307
NI2539   NI        0.514261    0.544955    0.547410     0.004307
NI2540   NI        0.548036    0.510270    0.545979     0.004307
NI2541   NI        0.545562    0.544765    0.513898     0.004307
NI2542   NI        0.583183    0.511295    0.514167     0.004307
NI2543   NI        0.577877    0.544077    0.547917     0.004307
NI2544   NI        0.616430    0.512493    0.548529     0.004307
NI2545   NI        0.614726    0.544105    0.512756     0.004307
NI2546   NI        0.649485    0.512261    0.511461     0.004307
NI2547   NI        0.649687    0.544924    0.547481     0.004307
NI2548   NI        0.681806    0.510171    0.549881     0.004307
NI2549   NI        0.682989    0.545128    0.511236     0.004307
NI2550   NI        0.714506    0.511922    0.516999     0.004307
NI2551   NI        0.719060    0.545775    0.549116     0.004307
NI2552   NI        0.752314    0.509169    0.544609     0.004307
NI2553   NI        0.750401    0.541423    0.515001     0.004307
AG2554   AG        0.792491    0.538650    0.542173     0.008887
AG2555   AG        0.811056    0.556050    0.590746     0.008887
AG2556   AG        0.847778    0.528498    0.552024     0.008887
AG2557   AG        0.879051    0.533697    0.493363     0.008887
AG2558   AG        0.041139    0.623117    0.569830     0.008887
AG2559   AG        0.082782    0.623680    0.533258     0.008887
AG2560   AG        0.080621    0.661663    0.569140     0.008887
AG2561   AG        0.129909    0.576700    0.539752     0.008887
AG2562   AG        0.130360    0.618105    0.503304     0.008887
NI2563   NI        0.169340    0.574761    0.509847     0.004307
AG2564   AG        0.165979    0.613640    0.544587     0.008887
NI2565   NI        0.202150    0.576284    0.548719     0.004307
NI2566   NI        0.206278    0.608638    0.510155     0.004307
NI2567   NI        0.238551    0.576211    0.510854     0.004307
NI2568   NI        0.232788    0.612418    0.548293     0.004307
NI2569   NI        0.270718    0.578533    0.547481     0.004307
NI2570   NI        0.269132    0.611013    0.511571     0.004307
NI2571   NI        0.303115    0.578246    0.514787     0.004307
NI2572   NI        0.304021    0.611736    0.549154     0.004307
NI2573   NI        0.342524    0.574932    0.548555     0.004307
NI2574   NI        0.342821    0.610389    0.517856     0.004307
NI2575   NI        0.374974    0.577546    0.514413     0.004307
NI2576   NI        0.376887    0.611053    0.550291     0.004307
NI2577   NI        0.407966    0.576203    0.549554     0.004307
NI2578   NI        0.409548    0.611578    0.518550     0.004307
NI2579   NI        0.442993    0.579455    0.513415     0.004307
NI2580   NI        0.443241    0.611922    0.549582     0.004307
NI2581   NI        0.479435    0.580388    0.544375     0.004307
NI2582   NI        0.477317    0.613511    0.512005     0.004307
NI2583   NI        0.514628    0.579618    0.514923     0.004307
NI2584   NI        0.512234    0.614574    0.547958     0.004307
NI2585   NI        0.548307    0.578412    0.549873     0.004307
NI2586   NI        0.547374    0.614798    0.513965     0.004307
NI2587   NI        0.578259    0.580106    0.514898     0.004307
NI2588   NI        0.582205    0.611796    0.548535     0.004307
NI2589   NI        0.616273    0.578223    0.548395     0.004307
NI2590   NI        0.615998    0.613903    0.513979     0.004307
NI2591   NI        0.647857    0.578095    0.512626     0.004307
NI2592   NI        0.650044    0.614121    0.547859     0.004307
NI2593   NI        0.683648    0.576682    0.548168     0.004307
NI2594   NI        0.679802    0.612254    0.515267     0.004307
NI2595   NI        0.717131    0.577065    0.513178     0.004307
AG2596   AG        0.722702    0.619994    0.539254     0.008887
AG2597   AG        0.760651    0.582062    0.541730     0.008887
AG2598   AG        0.790620    0.610139    0.504441     0.008887
AG2599   AG        0.835726    0.570703    0.507333     0.008887
AG2600   AG        0.816578    0.634821    0.589806     0.008887
AG2601   AG        0.813782    0.595534    0.552374     0.008887
AG2602   AG        0.070044    0.673147    0.511655     0.008887
AG2603   AG        0.121120    0.662510    0.533763     0.008887
AG2604   AG        0.111317    0.711240    0.508360     0.008887
AG2605   AG        0.166369    0.653449    0.507076     0.008887
AG2606   AG        0.159560    0.701172    0.533749     0.008887
NI2607   NI        0.203251    0.649942    0.549503     0.004307
AG2608   AG        0.206102    0.686132    0.507936     0.008887
NI2609   NI        0.236445    0.645837    0.513115     0.004307
NI2610   NI        0.243927    0.684101    0.550105     0.004307
NI2611   NI        0.269196    0.645011    0.544557     0.004307
NI2612   NI        0.272375    0.678704    0.511574     0.004307
NI2613   NI        0.307516    0.643486    0.515015     0.004307
NI2614   NI        0.305900    0.676789    0.546595     0.004307
NI2615   NI        0.340503    0.646984    0.550519     0.004307
NI2616   NI        0.342243    0.676359    0.513780     0.004307
NI2617   NI        0.377087    0.644466    0.518622     0.004307
NI2618   NI        0.377648    0.680293    0.547848     0.004307
NI2619   NI        0.410101    0.647309    0.549627     0.004307
NI2620   NI        0.413680    0.680762    0.515818     0.004307
NI2621   NI        0.442541    0.644574    0.515830     0.004307
NI2622   NI        0.447719    0.683480    0.548961     0.004307
NI2623   NI        0.479886    0.649242    0.549835     0.004307
NI2624   NI        0.477628    0.680137    0.512998     0.004307
NI2625   NI        0.513294    0.648338    0.515037     0.004307
NI2626   NI        0.513180    0.682192    0.548058     0.004307
NI2627   NI        0.545863    0.647795    0.549019     0.004307
NI2628   NI        0.547549    0.680045    0.514539     0.004307
NI2629   NI        0.582703    0.646859    0.517951     0.004307
NI2630   NI        0.584678    0.683172    0.551511     0.004307
NI2631   NI        0.618080    0.648182    0.549467     0.004307
NI2632   NI        0.615852    0.682041    0.512657     0.004307
NI2633   NI        0.649347    0.647306    0.514003     0.004307
NI2634   NI        0.653189    0.682382    0.548987     0.004307
NI2635   NI        0.683752    0.646773    0.550658     0.004307
AG2636   AG        0.698561    0.677724    0.511114     0.008887
AG2637   AG        0.752111    0.650155    0.503626     0.008887
AG2638   AG        0.734910    0.670734    0.549788     0.008887
AG2639   AG        0.775516    0.632257    0.551590     0.008887
AG2640   AG        0.785808    0.680930    0.532682     0.008887
AG2641   AG        0.828173    0.644962    0.522516     0.008887
AG2642   AG        0.157786    0.758052    0.502421     0.008887
AG2643   AG        0.199125    0.738780    0.531844     0.008887
AG2644   AG        0.203956    0.787139    0.503383     0.008887
AG2645   AG        0.245170    0.720580    0.518131     0.008887
AG2646   AG        0.244548    0.774181    0.539317     0.008887
AG2647   AG        0.285219    0.721203    0.558756     0.008887
AG2648   AG        0.287542    0.756715    0.516156     0.008887
NI2649   NI        0.307910    0.709838    0.511206     0.004307
AG2650   AG        0.327834    0.764675    0.554642     0.008887
NI2651   NI        0.341710    0.710143    0.543635     0.004307
NI2652   NI        0.336966    0.745430    0.512238     0.004307
NI2653   NI        0.376562    0.712928    0.512273     0.004307
NI2654   NI        0.374150    0.742692    0.546354     0.004307
NI2655   NI        0.413148    0.714285    0.546547     0.004307
NI2656   NI        0.410381    0.748358    0.514842     0.004307
NI2657   NI        0.446475    0.715356    0.513277     0.004307
NI2658   NI        0.446325    0.748125    0.547306     0.004307
NI2659   NI        0.477237    0.715527    0.548890     0.004307
NI2660   NI        0.478166    0.750954    0.514570     0.004307
NI2661   NI        0.510023    0.713917    0.516622     0.004307
NI2662   NI        0.515481    0.748317    0.548004     0.004307
NI2663   NI        0.546714    0.713926    0.548486     0.004307
NI2664   NI        0.543508    0.749590    0.515165     0.004307
NI2665   NI        0.579248    0.716167    0.515685     0.004307
AG2666   AG        0.584096    0.759828    0.542899     0.008887
AG2667   AG        0.622875    0.721659    0.545011     0.008887
AG2668   AG        0.629643    0.760971    0.508426     0.008887
AG2669   AG        0.664045    0.721740    0.507331     0.008887
AG2670   AG        0.663167    0.759721    0.550558     0.008887
AG2671   AG        0.698548    0.715650    0.549644     0.008887
AG2672   AG        0.705568    0.761062    0.516809     0.008887
AG2673   AG        0.742214    0.712551    0.517518     0.008887
AG2674   AG        0.238341    0.827071    0.518131     0.008887
AG2675   AG        0.245390    0.815475    0.572775     0.008887
AG2676   AG        0.290784    0.804378    0.538472     0.008887
AG2677   AG        0.288989    0.851778    0.567966     0.008887
AG2678   AG        0.335555    0.813167    0.576404     0.008887
AG2679   AG        0.335930    0.839782    0.526955     0.008887
AG2680   AG        0.372659    0.787508    0.521868     0.008887
AG2681   AG        0.370889    0.858163    0.567832     0.008887
AG2682   AG        0.397044    0.803304    0.570155     0.008887
AG2683   AG        0.401166    0.833633    0.527582     0.008887
AG2684   AG        0.438719    0.789340    0.521052     0.008887
AG2685   AG        0.423738    0.849682    0.576108     0.008887
AG2686   AG        0.449253    0.797638    0.574324     0.008887
AG2687   AG        0.459440    0.837792    0.536079     0.008887
AG2688   AG        0.493132    0.792651    0.537803     0.008887
AG2689   AG        0.508932    0.846299    0.550181     0.008887
AG2690   AG        0.546063    0.800484    0.547306     0.008887
AG2691   AG        0.549620    0.850760    0.501804     0.008887
AG2692   AG        0.587976    0.805142    0.508516     0.008887
AG2693   AG        0.581054    0.842800    0.544461     0.008887
AG2694   AG        0.628289    0.804062    0.546974     0.008887
AG2695   AG        0.677084    0.804186    0.516579     0.008887
AG2696   AG        0.418833    0.885906    0.535218     0.008887
AG2697   AG        0.311320    0.035373    0.597984     0.008887
AG2698   AG        0.385433    0.039893    0.599801     0.008887
AG2699   AG        0.417101    0.029312    0.642647     0.008887
AG2700   AG        0.471570    0.041130    0.607883     0.008887
AG2701   AG        0.558813    0.040159    0.598551     0.008887
AG2702   AG        0.185563    0.115637    0.569300     0.008887
AG2703   AG        0.228114    0.114925    0.605193     0.008887
AG2704   AG        0.267602    0.119056    0.568763     0.008887
AG2705   AG        0.270753    0.077566    0.603309     0.008887
AG2706   AG        0.306603    0.118366    0.608606     0.008887
AG2707   AG        0.305434    0.075529    0.647147     0.008887
AG2708   AG        0.348249    0.124351    0.574355     0.008887
AG2709   AG        0.346951    0.078266    0.604187     0.008887
AG2710   AG        0.385242    0.118840    0.617151     0.008887
AG2711   AG        0.381461    0.072357    0.645066     0.008887
AG2712   AG        0.418309    0.129462    0.578372     0.008887
AG2713   AG        0.425117    0.073101    0.610651     0.008887
AG2714   AG        0.425230    0.111969    0.648723     0.008887
AG2715   AG        0.454462    0.066540    0.657153     0.008887
AG2716   AG        0.453818    0.126350    0.605756     0.008887
AG2717   AG        0.518505    0.073058    0.610895     0.008887
AG2718   AG        0.506973    0.125689    0.612157     0.008887
AG2719   AG        0.561406    0.070410    0.650995     0.008887
AG2720   AG        0.545274    0.129398    0.571999     0.008887
AG2721   AG        0.602190    0.073043    0.606203     0.008887
AG2722   AG        0.568283    0.115356    0.618425     0.008887
AG2723   AG        0.612430    0.116897    0.578867     0.008887
AG2724   AG        0.649277    0.110627    0.618229     0.008887
AG2725   AG        0.688325    0.110371    0.580275     0.008887
AG2726   AG        0.103543    0.195994    0.571729     0.008887
AG2727   AG        0.141372    0.155112    0.570034     0.008887
AG2728   AG        0.149898    0.196419    0.604784     0.008887
AG2729   AG        0.188406    0.154587    0.607625     0.008887
AG2730   AG        0.192266    0.192627    0.566812     0.008887
AG2731   AG        0.227175    0.156148    0.569099     0.008887
AG2732   AG        0.228208    0.195572    0.608360     0.008887
AG2733   AG        0.266463    0.153675    0.608676     0.008887
NI2734   NI        0.273429    0.200782    0.578171     0.004307
AG2735   AG        0.311426    0.161540    0.578659     0.008887
NI2736   NI        0.309175    0.197766    0.612681     0.004307
AG2737   AG        0.348260    0.157970    0.617416     0.008887
NI2738   NI        0.346599    0.200900    0.578837     0.004307
NI2739   NI        0.381783    0.165486    0.579908     0.004307
NI2740   NI        0.379585    0.199483    0.615193     0.004307
NI2741   NI        0.418789    0.169870    0.613545     0.004307
NI2742   NI        0.413185    0.202546    0.582302     0.004307
NI2743   NI        0.449323    0.172460    0.578353     0.004307
NI2744   NI        0.447099    0.206362    0.614092     0.004307
NI2745   NI        0.481775    0.172288    0.611006     0.004307
NI2746   NI        0.483085    0.206433    0.580851     0.004307
NI2747   NI        0.516154    0.170660    0.574236     0.004307
NI2748   NI        0.515064    0.203689    0.615077     0.004307
AG2749   AG        0.547019    0.167060    0.613095     0.008887
NI2750   NI        0.548865    0.204826    0.579219     0.004307
AG2751   AG        0.587961    0.166502    0.579373     0.008887
NI2752   NI        0.584392    0.204276    0.614950     0.004307
AG2753   AG        0.608401    0.152630    0.624266     0.008887
NI2754   NI        0.617414    0.205859    0.579876     0.004307
AG2755   AG        0.647847    0.158126    0.585677     0.008887
AG2756   AG        0.648639    0.194290    0.621413     0.008887
AG2757   AG        0.688804    0.151037    0.619567     0.008887
AG2758   AG        0.689251    0.194909    0.578638     0.008887
AG2759   AG        0.732932    0.153444    0.578327     0.008887
AG2760   AG        0.726081    0.189061    0.619622     0.008887
AG2761   AG        0.769870    0.193774    0.583860     0.008887
AG2762   AG        0.112849    0.239320    0.605069     0.008887
AG2763   AG        0.108979    0.285739    0.570538     0.008887
AG2764   AG        0.156578    0.236800    0.568072     0.008887
AG2765   AG        0.149412    0.278080    0.612992     0.008887
AG2766   AG        0.192307    0.235967    0.610363     0.008887
NI2767   NI        0.204649    0.272862    0.580920     0.004307
NI2768   NI        0.241457    0.239075    0.580243     0.004307
NI2769   NI        0.242027    0.271708    0.612631     0.004307
NI2770   NI        0.275735    0.232971    0.614202     0.004307
NI2771   NI        0.274940    0.272256    0.582480     0.004307
NI2772   NI        0.308941    0.236602    0.580554     0.004307
NI2773   NI        0.309107    0.270785    0.612495     0.004307
NI2774   NI        0.343844    0.235969    0.612916     0.004307
NI2775   NI        0.342990    0.272905    0.580478     0.004307
NI2776   NI        0.377435    0.237812    0.580548     0.004307
NI2777   NI        0.379499    0.270498    0.613278     0.004307
NI2778   NI        0.412430    0.236556    0.613608     0.004307
NI2779   NI        0.412282    0.272777    0.580653     0.004307
NI2780   NI        0.449194    0.240889    0.580157     0.004307
NI2781   NI        0.447957    0.273177    0.612819     0.004307
NI2782   NI        0.481844    0.240779    0.615708     0.004307
NI2783   NI        0.481387    0.273693    0.577921     0.004307
NI2784   NI        0.515402    0.239419    0.580557     0.004307
NI2785   NI        0.513521    0.274438    0.615003     0.004307
NI2786   NI        0.545825    0.237633    0.615250     0.004307
NI2787   NI        0.549601    0.271706    0.582255     0.004307
NI2788   NI        0.583175    0.237747    0.582459     0.004307
NI2789   NI        0.582137    0.275734    0.616412     0.004307
NI2790   NI        0.615831    0.239331    0.615796     0.004307
NI2791   NI        0.618972    0.272229    0.583288     0.004307
NI2792   NI        0.653540    0.237734    0.582777     0.004307
NI2793   NI        0.651717    0.275472    0.617945     0.004307
AG2794   AG        0.685451    0.232610    0.620379     0.008887
NI2795   NI        0.688481    0.273347    0.584661     0.004307
AG2796   AG        0.726542    0.233470    0.586164     0.008887
AG2797   AG        0.728416    0.275573    0.620706     0.008887
AG2798   AG        0.767367    0.232946    0.620935     0.008887
AG2799   AG        0.770608    0.274175    0.585545     0.008887
AG2800   AG        0.057922    0.321129    0.576151     0.008887
AG2801   AG        0.069350    0.277676    0.611068     0.008887
AG2802   AG        0.070039    0.351589    0.618265     0.008887
AG2803   AG        0.109519    0.314622    0.616528     0.008887
AG2804   AG        0.128553    0.329460    0.563366     0.008887
AG2805   AG        0.163481    0.287624    0.558954     0.008887
AG2806   AG        0.165973    0.326833    0.602535     0.008887
NI2807   NI        0.209940    0.306454    0.614230     0.004307
NI2808   NI        0.207802    0.337821    0.577714     0.004307
NI2809   NI        0.242120    0.303813    0.581662     0.004307
NI2810   NI        0.241552    0.338012    0.614593     0.004307
NI2811   NI        0.278989    0.304694    0.615478     0.004307
NI2812   NI        0.276126    0.339730    0.580523     0.004307
NI2813   NI        0.308592    0.306411    0.579834     0.004307
NI2814   NI        0.310050    0.338562    0.613625     0.004307
NI2815   NI        0.342555    0.304521    0.615310     0.004307
NI2816   NI        0.342922    0.337551    0.578816     0.004307
NI2817   NI        0.375123    0.304657    0.578340     0.004307
NI2818   NI        0.377463    0.338427    0.612978     0.004307
NI2819   NI        0.412312    0.306513    0.611747     0.004307
NI2820   NI        0.412262    0.340324    0.578851     0.004307
NI2821   NI        0.446429    0.306186    0.579865     0.004307
NI2822   NI        0.446167    0.340849    0.613791     0.004307
NI2823   NI        0.480240    0.307497    0.614431     0.004307
NI2824   NI        0.480363    0.339811    0.580803     0.004307
NI2825   NI        0.517974    0.306150    0.579746     0.004307
NI2826   NI        0.514236    0.341379    0.613938     0.004307
NI2827   NI        0.547207    0.305231    0.615759     0.004307
NI2828   NI        0.549499    0.338656    0.579105     0.004307
NI2829   NI        0.583657    0.305120    0.581113     0.004307
NI2830   NI        0.581947    0.339931    0.614967     0.004307
NI2831   NI        0.619321    0.307194    0.614728     0.004307
NI2832   NI        0.617672    0.338247    0.583405     0.004307
NI2833   NI        0.653079    0.306984    0.580837     0.004307
NI2834   NI        0.653658    0.339876    0.616232     0.004307
NI2835   NI        0.688035    0.307550    0.618320     0.004307
NI2836   NI        0.684633    0.341219    0.581596     0.004307
AG2837   AG        0.724759    0.312735    0.583369     0.008887
AG2838   AG        0.726605    0.344964    0.624747     0.008887
AG2839   AG        0.771049    0.313186    0.622930     0.008887
AG2840   AG        0.768162    0.348691    0.585722     0.008887
AG2841   AG        0.812001    0.275573    0.620821     0.008887
AG2842   AG        0.811938    0.317237    0.658793     0.008887
AG2843   AG        0.851561    0.320320    0.618510     0.008887
AG2844   AG        0.048964    0.404779    0.564701     0.008887
AG2845   AG        0.089651    0.364494    0.567295     0.008887
AG2846   AG        0.085238    0.400185    0.608594     0.008887
AG2847   AG        0.129319    0.367080    0.605302     0.008887
AG2848   AG        0.131567    0.410825    0.577763     0.008887
NI2849   NI        0.171214    0.373408    0.577847     0.004307
NI2850   NI        0.170867    0.408062    0.610600     0.004307
NI2851   NI        0.205189    0.373949    0.613867     0.004307
NI2852   NI        0.207034    0.404962    0.580347     0.004307
NI2853   NI        0.238652    0.373381    0.580531     0.004307
NI2854   NI        0.239445    0.406829    0.614540     0.004307
NI2855   NI        0.276969    0.372857    0.613602     0.004307
NI2856   NI        0.272886    0.405701    0.579812     0.004307
NI2857   NI        0.311076    0.375121    0.580784     0.004307
NI2858   NI        0.308675    0.407315    0.612899     0.004307
NI2859   NI        0.343510    0.370905    0.612183     0.004307
NI2860   NI        0.342701    0.408849    0.580424     0.004307
NI2861   NI        0.375121    0.375107    0.578849     0.004307
NI2862   NI        0.378782    0.408647    0.612805     0.004307
NI2863   NI        0.408966    0.373611    0.610432     0.004307
NI2864   NI        0.411952    0.408467    0.578194     0.004307
NI2865   NI        0.446544    0.374199    0.580435     0.004307
NI2866   NI        0.444385    0.408568    0.610978     0.004307
NI2867   NI        0.480235    0.369488    0.614288     0.004307
NI2868   NI        0.480037    0.408775    0.579903     0.004307
NI2869   NI        0.515822    0.373822    0.578809     0.004307
NI2870   NI        0.514611    0.405239    0.611932     0.004307
NI2871   NI        0.549966    0.374907    0.616446     0.004307
NI2872   NI        0.549219    0.407720    0.582830     0.004307
NI2873   NI        0.583520    0.373191    0.580636     0.004307
NI2874   NI        0.584701    0.408001    0.614480     0.004307
NI2875   NI        0.618901    0.371685    0.615520     0.004307
NI2876   NI        0.616487    0.406812    0.580905     0.004307
NI2877   NI        0.648162    0.372405    0.581965     0.004307
NI2878   NI        0.648455    0.409858    0.612835     0.004307
NI2879   NI        0.684954    0.375083    0.616318     0.004307
NI2880   NI        0.684272    0.411083    0.582175     0.004307
NI2881   NI        0.724475    0.375047    0.582036     0.004307
NI2882   NI        0.720486    0.409934    0.616720     0.004307
AG2883   AG        0.765725    0.384978    0.623817     0.008887
AG2884   AG        0.757917    0.408951    0.581950     0.008887
AG2885   AG        0.812587    0.358048    0.621943     0.008887
AG2886   AG        0.812929    0.416949    0.629242     0.008887
AG2887   AG        0.858611    0.386204    0.642821     0.008887
AG2888   AG        0.039632    0.436945    0.613460     0.008887
AG2889   AG        0.031709    0.501372    0.592808     0.008887
AG2890   AG        0.085661    0.444851    0.581479     0.008887
AG2891   AG        0.071256    0.482862    0.623989     0.008887
AG2892   AG        0.120914    0.454164    0.622625     0.008887
AG2893   AG        0.132904    0.470966    0.574836     0.008887
NI2894   NI        0.173694    0.439138    0.575896     0.004307
NI2895   NI        0.169358    0.470133    0.610478     0.004307
NI2896   NI        0.204794    0.440240    0.610540     0.004307
NI2897   NI        0.206386    0.474333    0.578850     0.004307
NI2898   NI        0.240949    0.437817    0.580164     0.004307
NI2899   NI        0.241351    0.474033    0.614106     0.004307
NI2900   NI        0.275008    0.439978    0.611254     0.004307
NI2901   NI        0.273544    0.477054    0.581023     0.004307
NI2902   NI        0.308448    0.441667    0.580066     0.004307
NI2903   NI        0.306194    0.476313    0.613042     0.004307
NI2904   NI        0.343112    0.443046    0.612890     0.004307
NI2905   NI        0.339433    0.476370    0.581447     0.004307
NI2906   NI        0.378116    0.439383    0.579263     0.004307
NI2907   NI        0.375602    0.476183    0.612352     0.004307
NI2908   NI        0.410212    0.442722    0.613411     0.004307
NI2909   NI        0.412238    0.475110    0.578942     0.004307
NI2910   NI        0.445212    0.442972    0.581568     0.004307
NI2911   NI        0.446635    0.476241    0.612028     0.004307
NI2912   NI        0.480631    0.443273    0.611833     0.004307
NI2913   NI        0.481284    0.477417    0.579278     0.004307
NI2914   NI        0.514732    0.441145    0.582115     0.004307
NI2915   NI        0.515177    0.476404    0.612289     0.004307
NI2916   NI        0.548258    0.442314    0.613013     0.004307
NI2917   NI        0.547906    0.478607    0.580201     0.004307
NI2918   NI        0.582532    0.441791    0.582153     0.004307
NI2919   NI        0.583355    0.477431    0.613880     0.004307
NI2920   NI        0.616081    0.443386    0.613354     0.004307
NI2921   NI        0.617433    0.477218    0.582806     0.004307
NI2922   NI        0.650739    0.443938    0.582372     0.004307
NI2923   NI        0.648118    0.477255    0.617061     0.004307
NI2924   NI        0.686175    0.441297    0.616624     0.004307
NI2925   NI        0.682814    0.475785    0.582119     0.004307
NI2926   NI        0.718434    0.444098    0.581793     0.004307
NI2927   NI        0.719181    0.477121    0.614418     0.004307
AG2928   AG        0.761670    0.442869    0.621764     0.008887
AG2929   AG        0.757551    0.478933    0.581905     0.008887
AG2930   AG        0.800604    0.446062    0.582197     0.008887
AG2931   AG        0.813722    0.469593    0.627430     0.008887
AG2932   AG        0.860546    0.443063    0.637547     0.008887
AG2933   AG        0.854381    0.482109    0.593394     0.008887
AG2934   AG        0.039450    0.569935    0.607380     0.008887
AG2935   AG        0.081798    0.535532    0.611252     0.008887
AG2936   AG        0.074008    0.582679    0.652094     0.008887
AG2937   AG        0.124670    0.501297    0.615093     0.008887
AG2938   AG        0.127036    0.537934    0.575605     0.008887
NI2939   NI        0.171697    0.509148    0.579683     0.004307
AG2940   AG        0.164046    0.542947    0.618204     0.008887
NI2941   NI        0.206269    0.505760    0.614841     0.004307
NI2942   NI        0.203705    0.543911    0.580482     0.004307
NI2943   NI        0.239669    0.511563    0.579928     0.004307
NI2944   NI        0.237886    0.543974    0.615115     0.004307
NI2945   NI        0.275785    0.509387    0.615790     0.004307
NI2946   NI        0.273592    0.544216    0.582900     0.004307
NI2947   NI        0.306320    0.511183    0.581871     0.004307
NI2948   NI        0.306341    0.545772    0.615774     0.004307
NI2949   NI        0.338661    0.511670    0.614433     0.004307
NI2950   NI        0.340741    0.543991    0.582266     0.004307
NI2951   NI        0.375111    0.511235    0.579230     0.004307
NI2952   NI        0.375293    0.544837    0.614961     0.004307
NI2953   NI        0.410678    0.509169    0.613508     0.004307
NI2954   NI        0.409448    0.545766    0.581998     0.004307
NI2955   NI        0.445087    0.511809    0.581948     0.004307
NI2956   NI        0.443875    0.543841    0.613280     0.004307
NI2957   NI        0.481243    0.509441    0.614113     0.004307
NI2958   NI        0.479812    0.545653    0.580162     0.004307
NI2959   NI        0.512147    0.509578    0.579944     0.004307
NI2960   NI        0.512635    0.545090    0.615370     0.004307
NI2961   NI        0.549097    0.511656    0.614088     0.004307
NI2962   NI        0.547979    0.543895    0.582853     0.004307
NI2963   NI        0.581909    0.511304    0.582528     0.004307
NI2964   NI        0.583568    0.543941    0.616788     0.004307
NI2965   NI        0.617443    0.510784    0.617141     0.004307
NI2966   NI        0.615343    0.544045    0.583261     0.004307
NI2967   NI        0.650133    0.511468    0.582767     0.004307
NI2968   NI        0.650948    0.544665    0.618612     0.004307
NI2969   NI        0.684493    0.510417    0.616098     0.004307
NI2970   NI        0.686453    0.547084    0.585681     0.004307
NI2971   NI        0.715316    0.511482    0.579618     0.004307
AG2972   AG        0.726413    0.542497    0.623480     0.008887
AG2973   AG        0.770546    0.509073    0.624304     0.008887
AG2974   AG        0.757209    0.544233    0.582223     0.008887
AG2975   AG        0.807529    0.505110    0.583950     0.008887
AG2976   AG        0.815010    0.560259    0.674158     0.008887
AG2977   AG        0.822063    0.522290    0.635241     0.008887
AG2978   AG        0.076766    0.617436    0.609206     0.008887
AG2979   AG        0.118937    0.579812    0.615759     0.008887
AG2980   AG        0.118832    0.618673    0.575175     0.008887
AG2981   AG        0.161175    0.581395    0.583027     0.008887
AG2982   AG        0.158533    0.623528    0.614092     0.008887
NI2983   NI        0.200396    0.578146    0.614857     0.004307
NI2984   NI        0.204224    0.610785    0.585047     0.004307
NI2985   NI        0.235201    0.577314    0.581622     0.004307
NI2986   NI        0.235467    0.609882    0.617805     0.004307
NI2987   NI        0.272783    0.581685    0.618836     0.004307
NI2988   NI        0.268223    0.610827    0.581533     0.004307
NI2989   NI        0.308681    0.575975    0.580215     0.004307
NI2990   NI        0.306769    0.613153    0.618004     0.004307
NI2991   NI        0.339246    0.578328    0.616668     0.004307
NI2992   NI        0.342489    0.611969    0.580084     0.004307
NI2993   NI        0.374269    0.576540    0.583740     0.004307
NI2994   NI        0.375145    0.611895    0.617166     0.004307
NI2995   NI        0.409951    0.580134    0.615104     0.004307
NI2996   NI        0.408514    0.612585    0.582622     0.004307
NI2997   NI        0.446262    0.577341    0.579386     0.004307
NI2998   NI        0.443250    0.614489    0.613821     0.004307
NI2999   NI        0.478158    0.577675    0.615227     0.004307
NI3000   NI        0.478604    0.614642    0.581121     0.004307
NI3001   NI        0.512124    0.581949    0.580192     0.004307
NI3002   NI        0.513200    0.612305    0.614853     0.004307
NI3003   NI        0.546308    0.578846    0.616989     0.004307
NI3004   NI        0.546659    0.614234    0.578401     0.004307
NI3005   NI        0.582409    0.579471    0.583665     0.004307
NI3006   NI        0.579459    0.612641    0.616857     0.004307
NI3007   NI        0.617533    0.576765    0.618037     0.004307
NI3008   NI        0.616178    0.613989    0.583276     0.004307
NI3009   NI        0.649272    0.578180    0.584011     0.004307
NI3010   NI        0.647307    0.613733    0.616476     0.004307
NI3011   NI        0.682518    0.579096    0.619690     0.004307
NI3012   NI        0.681041    0.612097    0.581633     0.004307
AG3013   AG        0.721847    0.585275    0.583158     0.008887
AG3014   AG        0.738628    0.595689    0.630810     0.008887
AG3015   AG        0.776607    0.559430    0.634679     0.008887
AG3016   AG        0.774999    0.594047    0.591381     0.008887
AG3017   AG        0.815160    0.598415    0.629117     0.008887
AG3018   AG        0.115695    0.660136    0.611902     0.008887
AG3019   AG        0.122742    0.701977    0.571011     0.008887
AG3020   AG        0.158088    0.660135    0.572492     0.008887
AG3021   AG        0.158988    0.695990    0.612455     0.008887
AG3022   AG        0.199994    0.654728    0.613144     0.008887
AG3023   AG        0.196530    0.695650    0.573269     0.008887
NI3024   NI        0.241031    0.647788    0.581380     0.004307
AG3025   AG        0.237916    0.691133    0.612291     0.008887
NI3026   NI        0.272959    0.645770    0.614935     0.004307
NI3027   NI        0.278765    0.680134    0.583862     0.004307
NI3028   NI        0.306879    0.644412    0.581575     0.004307
NI3029   NI        0.307664    0.681694    0.618264     0.004307
NI3030   NI        0.342054    0.647816    0.615708     0.004307
NI3031   NI        0.342864    0.679814    0.580868     0.004307
NI3032   NI        0.375532    0.646556    0.583361     0.004307
NI3033   NI        0.375916    0.678760    0.616575     0.004307
NI3034   NI        0.409927    0.648420    0.615029     0.004307
NI3035   NI        0.411928    0.684608    0.586299     0.004307
NI3036   NI        0.444071    0.649071    0.581280     0.004307
NI3037   NI        0.445909    0.682510    0.617409     0.004307
NI3038   NI        0.479332    0.645897    0.617044     0.004307
NI3039   NI        0.480580    0.681190    0.584431     0.004307
NI3040   NI        0.513117    0.650343    0.583775     0.004307
NI3041   NI        0.511785    0.681286    0.619458     0.004307
NI3042   NI        0.546775    0.644560    0.616879     0.004307
NI3043   NI        0.546465    0.684030    0.588477     0.004307
NI3044   NI        0.581717    0.647478    0.582124     0.004307
NI3045   NI        0.583434    0.682160    0.617353     0.004307
NI3046   NI        0.617274    0.647133    0.616415     0.004307
NI3047   NI        0.621308    0.682603    0.585141     0.004307
NI3048   NI        0.654392    0.648303    0.587876     0.004307
AG3049   AG        0.657310    0.677219    0.625153     0.008887
AG3050   AG        0.696673    0.633694    0.621367     0.008887
AG3051   AG        0.697987    0.679254    0.588683     0.008887
AG3052   AG        0.735851    0.635479    0.588939     0.008887
AG3053   AG        0.739097    0.678310    0.625462     0.008887
AG3054   AG        0.777619    0.637005    0.628650     0.008887
AG3055   AG        0.777313    0.673232    0.587194     0.008887
AG3056   AG        0.164355    0.737466    0.571736     0.008887
AG3057   AG        0.197057    0.733869    0.612925     0.008887
AG3058   AG        0.200376    0.779974    0.570506     0.008887
AG3059   AG        0.236281    0.730565    0.575478     0.008887
AG3060   AG        0.237941    0.772633    0.609744     0.008887
AG3061   AG        0.279356    0.730947    0.613824     0.008887
AG3062   AG        0.281099    0.771444    0.578696     0.008887
AG3063   AG        0.328960    0.724035    0.591327     0.008887
AG3064   AG        0.321469    0.774758    0.615446     0.008887
AG3065   AG        0.364269    0.723588    0.632756     0.008887
AG3066   AG        0.366085    0.760456    0.593393     0.008887
NI3067   NI        0.378275    0.713547    0.582347     0.004307
AG3068   AG        0.399744    0.765486    0.633644     0.008887
NI3069   NI        0.415424    0.719156    0.618006     0.004307
AG3070   AG        0.413144    0.753638    0.579829     0.008887
NI3071   NI        0.445753    0.716282    0.582863     0.004307
AG3072   AG        0.447938    0.762029    0.620848     0.008887
NI3073   NI        0.477856    0.716279    0.615974     0.004307
AG3074   AG        0.482116    0.753479    0.582281     0.008887
NI3075   NI        0.515972    0.717119    0.585152     0.004307
AG3076   AG        0.507111    0.760757    0.625725     0.008887
AG3077   AG        0.548806    0.718412    0.620661     0.008887
AG3078   AG        0.545260    0.760453    0.583865     0.008887
AG3079   AG        0.587633    0.723697    0.582159     0.008887
AG3080   AG        0.581949    0.763790    0.625780     0.008887
AG3081   AG        0.621289    0.721626    0.625715     0.008887
AG3082   AG        0.625114    0.763329    0.586303     0.008887
AG3083   AG        0.659076    0.715079    0.584188     0.008887
AG3084   AG        0.662250    0.759201    0.627057     0.008887
AG3085   AG        0.698396    0.718207    0.623574     0.008887
AG3086   AG        0.704018    0.758664    0.585084     0.008887
AG3087   AG        0.739784    0.714884    0.583974     0.008887
AG3088   AG        0.285895    0.815401    0.610495     0.008887
AG3089   AG        0.321004    0.813364    0.654373     0.008887
AG3090   AG        0.330866    0.855475    0.611631     0.008887
AG3091   AG        0.366806    0.810363    0.622434     0.008887
AG3092   AG        0.396331    0.816990    0.667479     0.008887
AG3093   AG        0.396619    0.856444    0.624949     0.008887
AG3094   AG        0.426360    0.812153    0.621296     0.008887
AG3095   AG        0.444123    0.841144    0.663754     0.008887
AG3096   AG        0.476781    0.808088    0.638389     0.008887
AG3097   AG        0.473123    0.845767    0.598757     0.008887
AG3098   AG        0.506567    0.802920    0.590250     0.008887
AG3099   AG        0.541428    0.801373    0.631429     0.008887
AG3100   AG        0.545860    0.840524    0.591274     0.008887
AG3101   AG        0.584433    0.802473    0.585270     0.008887
AG3102   AG        0.265307    0.112747    0.647881     0.008887
AG3103   AG        0.303598    0.113293    0.687047     0.008887
AG3104   AG        0.344294    0.115981    0.648084     0.008887
AG3105   AG        0.345276    0.073555    0.685343     0.008887
AG3106   AG        0.343223    0.105819    0.728214     0.008887
AG3107   AG        0.381258    0.111340    0.687714     0.008887
AG3108   AG        0.409758    0.064743    0.691054     0.008887
AG3109   AG        0.454145    0.098785    0.700627     0.008887
AG3110   AG        0.479993    0.111694    0.655469     0.008887
AG3111   AG        0.507322    0.060893    0.657080     0.008887
AG3112   AG        0.506819    0.091142    0.703039     0.008887
AG3113   AG        0.528929    0.111702    0.656358     0.008887
AG3114   AG        0.573553    0.107699    0.692769     0.008887
AG3115   AG        0.608919    0.102209    0.652555     0.008887
AG3116   AG        0.187584    0.197646    0.646369     0.008887
AG3117   AG        0.226577    0.154208    0.645918     0.008887
AG3118   AG        0.226541    0.192810    0.685291     0.008887
AG3119   AG        0.267891    0.155942    0.685504     0.008887
AG3120   AG        0.265973    0.195911    0.646037     0.008887
AG3121   AG        0.301942    0.156017    0.647300     0.008887
AG3122   AG        0.304380    0.197117    0.682508     0.008887
AG3123   AG        0.343787    0.157294    0.685232     0.008887
NI3124   NI        0.343223    0.200223    0.645207     0.004307
AG3125   AG        0.388697    0.155388    0.654590     0.008887
AG3126   AG        0.380728    0.195950    0.685113     0.008887
AG3127   AG        0.423925    0.142566    0.692221     0.008887
NI3128   NI        0.412530    0.201332    0.647347     0.004307
AG3129   AG        0.453604    0.161716    0.650547     0.008887
AG3130   AG        0.448180    0.197259    0.684656     0.008887
AG3131   AG        0.479994    0.144184    0.695263     0.008887
NI3132   NI        0.480657    0.204775    0.645932     0.004307
AG3133   AG        0.511170    0.162149    0.651785     0.008887
AG3134   AG        0.515182    0.198431    0.685725     0.008887
AG3135   AG        0.533397    0.145443    0.698141     0.008887
NI3136   NI        0.550418    0.201266    0.649009     0.004307
AG3137   AG        0.568982    0.151764    0.659950     0.008887
AG3138   AG        0.566628    0.188380    0.697017     0.008887
AG3139   AG        0.613284    0.141707    0.693779     0.008887
AG3140   AG        0.606847    0.191794    0.658934     0.008887
AG3141   AG        0.652117    0.150900    0.655530     0.008887
AG3142   AG        0.650325    0.188767    0.694649     0.008887
AG3143   AG        0.689459    0.193168    0.658901     0.008887
AG3144   AG        0.109030    0.270680    0.651420     0.008887
AG3145   AG        0.149479    0.233757    0.646653     0.008887
AG3146   AG        0.151705    0.272542    0.686836     0.008887
AG3147   AG        0.192728    0.235652    0.685645     0.008887
AG3148   AG        0.191563    0.276149    0.648319     0.008887
AG3149   AG        0.233084    0.235289    0.645610     0.008887
AG3150   AG        0.229839    0.273672    0.691714     0.008887
AG3151   AG        0.265348    0.234904    0.683894     0.008887
NI3152   NI        0.276606    0.267664    0.647613     0.004307
NI3153   NI        0.309755    0.235495    0.644539     0.004307
NI3154   NI        0.312279    0.267045    0.680311     0.004307
NI3155   NI        0.341822    0.231072    0.683281     0.004307
NI3156   NI        0.344509    0.268392    0.644465     0.004307
NI3157   NI        0.376538    0.232369    0.648350     0.004307
NI3158   NI        0.376124    0.269769    0.680994     0.004307
NI3159   NI        0.411127    0.237490    0.682071     0.004307
NI3160   NI        0.411035    0.269116    0.646392     0.004307
NI3161   NI        0.446975    0.237569    0.648284     0.004307
NI3162   NI        0.445021    0.270051    0.682180     0.004307
NI3163   NI        0.482806    0.237994    0.681160     0.004307
NI3164   NI        0.481747    0.274372    0.648151     0.004307
NI3165   NI        0.516010    0.236733    0.650051     0.004307
NI3166   NI        0.516202    0.272318    0.684439     0.004307
NI3167   NI        0.544360    0.234329    0.689374     0.004307
NI3168   NI        0.545300    0.274967    0.649825     0.004307
NI3169   NI        0.579353    0.240746    0.650713     0.004307
NI3170   NI        0.577704    0.272931    0.684298     0.004307
AG3171   AG        0.603353    0.228744    0.697716     0.008887
NI3172   NI        0.617062    0.273804    0.653916     0.004307
AG3173   AG        0.646311    0.234646    0.659283     0.008887
AG3174   AG        0.645523    0.274007    0.698281     0.008887
AG3175   AG        0.689305    0.233299    0.694436     0.008887
AG3176   AG        0.686282    0.272463    0.657969     0.008887
AG3177   AG        0.727586    0.234599    0.657201     0.008887
AG3178   AG        0.726778    0.272612    0.701349     0.008887
AG3179   AG        0.768664    0.272398    0.660205     0.008887
AG3180   AG        0.109899    0.309639    0.692932     0.008887
AG3181   AG        0.110234    0.349267    0.656030     0.008887
AG3182   AG        0.152591    0.317682    0.655174     0.008887
AG3183   AG        0.148314    0.352011    0.695262     0.008887
AG3184   AG        0.190462    0.312545    0.688763     0.008887
NI3185   NI        0.205297    0.340374    0.647295     0.004307
NI3186   NI        0.240184    0.302701    0.646463     0.004307
NI3187   NI        0.241736    0.340480    0.679830     0.004307
NI3188   NI        0.273568    0.302414    0.679314     0.004307
NI3189   NI        0.274269    0.338004    0.647135     0.004307
NI3190   NI        0.309561    0.305845    0.649111     0.004307
NI3191   NI        0.309521    0.337706    0.680232     0.004307
NI3192   NI        0.345198    0.303814    0.681682     0.004307
NI3193   NI        0.342835    0.337695    0.648536     0.004307
NI3194   NI        0.379563    0.304568    0.644759     0.004307
NI3195   NI        0.377079    0.340050    0.682315     0.004307
NI3196   NI        0.412055    0.304273    0.678421     0.004307
NI3197   NI        0.409169    0.339712    0.649411     0.004307
NI3198   NI        0.445392    0.306570    0.645472     0.004307
NI3199   NI        0.445380    0.340265    0.677268     0.004307
NI3200   NI        0.479518    0.307093    0.682375     0.004307
NI3201   NI        0.480067    0.340927    0.648452     0.004307
NI3202   NI        0.510708    0.308347    0.650037     0.004307
NI3203   NI        0.513169    0.340876    0.682237     0.004307
NI3204   NI        0.548549    0.309129    0.687345     0.004307
NI3205   NI        0.548668    0.340157    0.649956     0.004307
NI3206   NI        0.582603    0.306682    0.651564     0.004307
NI3207   NI        0.582709    0.342710    0.684256     0.004307
NI3208   NI        0.615655    0.307459    0.685844     0.004307
NI3209   NI        0.616926    0.340946    0.649674     0.004307
NI3210   NI        0.650965    0.306806    0.655462     0.004307
NI3211   NI        0.648292    0.341812    0.685147     0.004307
AG3212   AG        0.685547    0.308548    0.695651     0.008887
NI3213   NI        0.684825    0.342546    0.656668     0.004307
AG3214   AG        0.727820    0.310639    0.663887     0.008887
AG3215   AG        0.724841    0.346481    0.702721     0.008887
AG3216   AG        0.768738    0.310719    0.702563     0.008887
AG3217   AG        0.766828    0.348915    0.664407     0.008887
AG3218   AG        0.060332    0.384698    0.659343     0.008887
AG3219   AG        0.106142    0.387232    0.695248     0.008887
AG3220   AG        0.127338    0.406264    0.646307     0.008887
AG3221   AG        0.163124    0.366457    0.644190     0.008887
AG3222   AG        0.159761    0.406260    0.685234     0.008887
AG3223   AG        0.199525    0.371588    0.683810     0.008887
NI3224   NI        0.205285    0.408760    0.648380     0.004307
NI3225   NI        0.240624    0.372656    0.646594     0.004307
NI3226   NI        0.237239    0.406002    0.682066     0.004307
NI3227   NI        0.276258    0.372372    0.681960     0.004307
NI3228   NI        0.276847    0.406948    0.644702     0.004307
NI3229   NI        0.309147    0.372716    0.647228     0.004307
NI3230   NI        0.306136    0.406466    0.681138     0.004307
NI3231   NI        0.340868    0.377029    0.680354     0.004307
NI3232   NI        0.341258    0.407017    0.645445     0.004307
NI3233   NI        0.375840    0.372835    0.643370     0.004307
NI3234   NI        0.377215    0.407965    0.678043     0.004307
NI3235   NI        0.410825    0.375436    0.679821     0.004307
NI3236   NI        0.411931    0.408727    0.643598     0.004307
NI3237   NI        0.443794    0.374146    0.644511     0.004307
NI3238   NI        0.447872    0.407502    0.677205     0.004307
NI3239   NI        0.481623    0.374701    0.680845     0.004307
NI3240   NI        0.478602    0.407663    0.643919     0.004307
NI3241   NI        0.514957    0.373395    0.646589     0.004307
NI3242   NI        0.510843    0.409152    0.678430     0.004307
NI3243   NI        0.548369    0.376014    0.679986     0.004307
NI3244   NI        0.548760    0.408369    0.647164     0.004307
NI3245   NI        0.582660    0.373553    0.649617     0.004307
NI3246   NI        0.581319    0.406956    0.682008     0.004307
NI3247   NI        0.617626    0.376599    0.679375     0.004307
NI3248   NI        0.615137    0.408595    0.647371     0.004307
NI3249   NI        0.651526    0.374077    0.647054     0.004307
NI3250   NI        0.649134    0.410385    0.682739     0.004307
AG3251   AG        0.684194    0.377462    0.694958     0.008887
NI3252   NI        0.684037    0.409243    0.650395     0.004307
AG3253   AG        0.725287    0.383719    0.661693     0.008887
AG3254   AG        0.731028    0.420001    0.701494     0.008887
AG3255   AG        0.767174    0.376826    0.711104     0.008887
AG3256   AG        0.771068    0.415370    0.666496     0.008887
AG3257   AG        0.811933    0.378775    0.675099     0.008887
AG3258   AG        0.077513    0.431037    0.651975     0.008887
AG3259   AG        0.111832    0.439008    0.692084     0.008887
AG3260   AG        0.111107    0.488905    0.666490     0.008887
AG3261   AG        0.160389    0.448078    0.653852     0.008887
AG3262   AG        0.152167    0.480795    0.700016     0.008887
AG3263   AG        0.199607    0.443986    0.689712     0.008887
NI3264   NI        0.203794    0.472839    0.646906     0.004307
NI3265   NI        0.237652    0.440843    0.644662     0.004307
NI3266   NI        0.241237    0.475790    0.680498     0.004307
NI3267   NI        0.270859    0.438738    0.681020     0.004307
NI3268   NI        0.274690    0.475961    0.648005     0.004307
NI3269   NI        0.310133    0.441678    0.645390     0.004307
NI3270   NI        0.307634    0.472227    0.682752     0.004307
NI3271   NI        0.341774    0.438580    0.680788     0.004307
NI3272   NI        0.342488    0.475476    0.646702     0.004307
NI3273   NI        0.376413    0.442809    0.646356     0.004307
NI3274   NI        0.376303    0.475177    0.679678     0.004307
NI3275   NI        0.411738    0.440983    0.680423     0.004307
NI3276   NI        0.409522    0.477392    0.646018     0.004307
NI3277   NI        0.446499    0.443206    0.643877     0.004307
NI3278   NI        0.446241    0.475019    0.679651     0.004307
NI3279   NI        0.480004    0.442097    0.677763     0.004307
NI3280   NI        0.480851    0.474456    0.645074     0.004307
NI3281   NI        0.516822    0.442510    0.645870     0.004307
NI3282   NI        0.514153    0.476405    0.680287     0.004307
NI3283   NI        0.548153    0.444181    0.680074     0.004307
NI3284   NI        0.550217    0.476396    0.645969     0.004307
NI3285   NI        0.581575    0.441235    0.648345     0.004307
NI3286   NI        0.581334    0.478432    0.681310     0.004307
NI3287   NI        0.613186    0.442916    0.683222     0.004307
NI3288   NI        0.612455    0.476260    0.648635     0.004307
NI3289   NI        0.648993    0.442242    0.649597     0.004307
NI3290   NI        0.644835    0.477231    0.683338     0.004307
AG3291   AG        0.684139    0.446853    0.690630     0.008887
NI3292   NI        0.682047    0.477969    0.649473     0.004307
AG3293   AG        0.721836    0.443429    0.654087     0.008887
AG3294   AG        0.734971    0.470962    0.700961     0.008887
AG3295   AG        0.778135    0.437123    0.716551     0.008887
AG3296   AG        0.776205    0.467771    0.667484     0.008887
AG3297   AG        0.822787    0.436770    0.678041     0.008887
AG3298   AG        0.066935    0.525025    0.658381     0.008887
AG3299   AG        0.106663    0.528883    0.702960     0.008887
AG3300   AG        0.120170    0.542013    0.651295     0.008887
AG3301   AG        0.162442    0.500355    0.650453     0.008887
AG3302   AG        0.157896    0.536603    0.689726     0.008887
AG3303   AG        0.199816    0.501542    0.689199     0.008887
NI3304   NI        0.203124    0.538324    0.650988     0.004307
NI3305   NI        0.239601    0.509702    0.648182     0.004307
NI3306   NI        0.233970    0.541727    0.688995     0.004307
NI3307   NI        0.272184    0.510305    0.683748     0.004307
NI3308   NI        0.273411    0.541791    0.652399     0.004307
NI3309   NI        0.309000    0.507941    0.651473     0.004307
NI3310   NI        0.307448    0.541748    0.685857     0.004307
NI3311   NI        0.341227    0.508134    0.681755     0.004307
NI3312   NI        0.339561    0.543951    0.649370     0.004307
NI3313   NI        0.374919    0.510554    0.644807     0.004307
NI3314   NI        0.376982    0.545677    0.680835     0.004307
NI3315   NI        0.410425    0.509852    0.679522     0.004307
NI3316   NI        0.410417    0.546110    0.646967     0.004307
NI3317   NI        0.444792    0.508762    0.647463     0.004307
NI3318   NI        0.444949    0.543075    0.680818     0.004307
NI3319   NI        0.478385    0.507362    0.677882     0.004307
NI3320   NI        0.478698    0.544664    0.647640     0.004307
NI3321   NI        0.514065    0.509274    0.647853     0.004307
NI3322   NI        0.512125    0.544011    0.681142     0.004307
NI3323   NI        0.546895    0.512340    0.682028     0.004307
NI3324   NI        0.546472    0.544564    0.649717     0.004307
NI3325   NI        0.580879    0.513803    0.651542     0.004307
NI3326   NI        0.578421    0.546510    0.683470     0.004307
NI3327   NI        0.614512    0.512322    0.686409     0.004307
NI3328   NI        0.615437    0.545487    0.654201     0.004307
NI3329   NI        0.646866    0.512858    0.652461     0.004307
NI3330   NI        0.649176    0.545476    0.686747     0.004307
AG3331   AG        0.688245    0.508044    0.689016     0.008887
NI3332   NI        0.685341    0.545472    0.657401     0.004307
AG3333   AG        0.730864    0.502421    0.655972     0.008887
AG3334   AG        0.737669    0.519584    0.711395     0.008887
AG3335   AG        0.784900    0.484619    0.721703     0.008887
AG3336   AG        0.778622    0.517403    0.676411     0.008887
AG3337   AG        0.827452    0.487422    0.685839     0.008887
AG3338   AG        0.112139    0.578299    0.690003     0.008887
AG3339   AG        0.116793    0.621105    0.650547     0.008887
AG3340   AG        0.157837    0.582170    0.654686     0.008887
AG3341   AG        0.150963    0.620901    0.693687     0.008887
AG3342   AG        0.197659    0.573450    0.689393     0.008887
AG3343   AG        0.197535    0.614386    0.650347     0.008887
NI3344   NI        0.233694    0.576889    0.653418     0.004307
AG3345   AG        0.234361    0.612742    0.688782     0.008887
NI3346   NI        0.269913    0.577304    0.685391     0.004307
NI3347   NI        0.271726    0.613247    0.652978     0.004307
NI3348   NI        0.304632    0.579562    0.653173     0.004307
NI3349   NI        0.305002    0.613929    0.688973     0.004307
NI3350   NI        0.341955    0.579493    0.684567     0.004307
NI3351   NI        0.342262    0.611854    0.650672     0.004307
NI3352   NI        0.376967    0.578287    0.650468     0.004307
NI3353   NI        0.375049    0.613165    0.685484     0.004307
NI3354   NI        0.412549    0.576710    0.682579     0.004307
NI3355   NI        0.407967    0.613090    0.648613     0.004307
NI3356   NI        0.442126    0.581391    0.648047     0.004307
NI3357   NI        0.443389    0.611123    0.681169     0.004307
NI3358   NI        0.474592    0.577860    0.682857     0.004307
NI3359   NI        0.478649    0.611508    0.647050     0.004307
NI3360   NI        0.511819    0.577620    0.648728     0.004307
NI3361   NI        0.506169    0.609931    0.682357     0.004307
NI3362   NI        0.541734    0.578688    0.682312     0.004307
NI3363   NI        0.545068    0.611218    0.650358     0.004307
NI3364   NI        0.579246    0.578471    0.647880     0.004307
NI3365   NI        0.577416    0.609402    0.683752     0.004307
NI3366   NI        0.611209    0.579425    0.684941     0.004307
NI3367   NI        0.616619    0.609285    0.651927     0.004307
NI3368   NI        0.652200    0.578375    0.655920     0.004307
AG3369   AG        0.655354    0.597215    0.701725     0.008887
AG3370   AG        0.697684    0.558686    0.704101     0.008887
AG3371   AG        0.698581    0.597189    0.664674     0.008887
AG3372   AG        0.740606    0.556922    0.672373     0.008887
AG3373   AG        0.736338    0.599014    0.706784     0.008887
AG3374   AG        0.777563    0.559621    0.714394     0.008887
AG3375   AG        0.778885    0.600925    0.671590     0.008887
AG3376   AG        0.158330    0.659135    0.653817     0.008887
AG3377   AG        0.199534    0.656707    0.689355     0.008887
AG3378   AG        0.196139    0.696695    0.655300     0.008887
AG3379   AG        0.237410    0.650834    0.651681     0.008887
AG3380   AG        0.236208    0.696104    0.693129     0.008887
AG3381   AG        0.273396    0.654146    0.691409     0.008887
AG3382   AG        0.272968    0.691629    0.651227     0.008887
NI3383   NI        0.307699    0.646809    0.652060     0.004307
AG3384   AG        0.312509    0.693840    0.692791     0.008887
NI3385   NI        0.339684    0.648600    0.686873     0.004307
NI3386   NI        0.339875    0.682629    0.650405     0.004307
NI3387   NI        0.375632    0.649030    0.650186     0.004307
AG3388   AG        0.374879    0.686614    0.686302     0.008887
NI3389   NI        0.409326    0.643424    0.681649     0.004307
NI3390   NI        0.411036    0.682243    0.650545     0.004307
NI3391   NI        0.443944    0.646978    0.648536     0.004307
AG3392   AG        0.444801    0.681543    0.688156     0.008887
NI3393   NI        0.475615    0.644183    0.684980     0.004307
NI3394   NI        0.477561    0.680371    0.651345     0.004307
NI3395   NI        0.513235    0.643716    0.652045     0.004307
AG3396   AG        0.513488    0.676477    0.689662     0.008887
NI3397   NI        0.547365    0.642303    0.683725     0.004307
NI3398   NI        0.550740    0.681390    0.654089     0.004307
NI3399   NI        0.582457    0.645891    0.653152     0.004307
AG3400   AG        0.578861    0.677524    0.698188     0.008887
AG3401   AG        0.617446    0.636597    0.698651     0.008887
AG3402   AG        0.621615    0.679507    0.659996     0.008887
AG3403   AG        0.659994    0.636693    0.661724     0.008887
AG3404   AG        0.656759    0.673888    0.703260     0.008887
AG3405   AG        0.696229    0.637870    0.701790     0.008887
AG3406   AG        0.698810    0.677688    0.662992     0.008887
AG3407   AG        0.736938    0.638674    0.665006     0.008887
AG3408   AG        0.236696    0.731811    0.646391     0.008887
AG3409   AG        0.271389    0.735197    0.689524     0.008887
AG3410   AG        0.276638    0.774253    0.648561     0.008887
AG3411   AG        0.313472    0.733500    0.653177     0.008887
AG3412   AG        0.309104    0.774598    0.693579     0.008887
AG3413   AG        0.353024    0.733899    0.696008     0.008887
AG3414   AG        0.353596    0.773170    0.662214     0.008887
AG3415   AG        0.404415    0.725812    0.673826     0.008887
AG3416   AG        0.394024    0.773367    0.702956     0.008887
AG3417   AG        0.437391    0.741894    0.712679     0.008887
AG3418   AG        0.438013    0.780420    0.673928     0.008887
AG3419   AG        0.450710    0.723333    0.657176     0.008887
AG3420   AG        0.470025    0.786617    0.727095     0.008887
AG3421   AG        0.483578    0.718024    0.712766     0.008887
AG3422   AG        0.483977    0.758237    0.676831     0.008887
AG3423   AG        0.509559    0.716138    0.655052     0.008887
AG3424   AG        0.525480    0.763876    0.716657     0.008887
AG3425   AG        0.546535    0.717485    0.701910     0.008887
AG3426   AG        0.546964    0.760774    0.665410     0.008887
AG3427   AG        0.581525    0.719777    0.660303     0.008887
AG3428   AG        0.583247    0.759291    0.705475     0.008887
AG3429   AG        0.617148    0.715511    0.705607     0.008887
AG3430   AG        0.620972    0.758053    0.668284     0.008887
AG3431   AG        0.662419    0.720104    0.670170     0.008887
AG3432   AG        0.350002    0.807018    0.707197     0.008887
AG3433   AG        0.424120    0.817474    0.714869     0.008887
AG3434   AG        0.516619    0.804303    0.678676     0.008887
AG3435   AG        0.404585    0.101879    0.733055     0.008887
AG3436   AG        0.478729    0.083624    0.751150     0.008887
AG3437   AG        0.266611    0.193162    0.724742     0.008887
AG3438   AG        0.308018    0.152198    0.727107     0.008887
AG3439   AG        0.305727    0.190361    0.763814     0.008887
AG3440   AG        0.342820    0.196981    0.722808     0.008887
AG3441   AG        0.380715    0.155081    0.727234     0.008887
AG3442   AG        0.380604    0.187448    0.767296     0.008887
AG3443   AG        0.408297    0.132875    0.777061     0.008887
AG3444   AG        0.427363    0.183924    0.731956     0.008887
AG3445   AG        0.454841    0.134742    0.743777     0.008887
AG3446   AG        0.449250    0.173369    0.781883     0.008887
AG3447   AG        0.478224    0.125992    0.794836     0.008887
AG3448   AG        0.479129    0.186010    0.732128     0.008887
AG3449   AG        0.504828    0.132733    0.745452     0.008887
AG3450   AG        0.500517    0.180516    0.792694     0.008887
AG3451   AG        0.528651    0.183722    0.740204     0.008887
AG3452   AG        0.572925    0.145377    0.734712     0.008887
AG3453   AG        0.577547    0.179095    0.778619     0.008887
AG3454   AG        0.609844    0.184820    0.732861     0.008887
AG3455   AG        0.191266    0.272918    0.727891     0.008887
AG3456   AG        0.224798    0.231091    0.730420     0.008887
AG3457   AG        0.230750    0.272919    0.767180     0.008887
AG3458   AG        0.268105    0.232326    0.764911     0.008887
AG3459   AG        0.268032    0.275031    0.729329     0.008887
AG3460   AG        0.304071    0.236036    0.722154     0.008887
AG3461   AG        0.309358    0.269999    0.765152     0.008887
AG3462   AG        0.342911    0.227802    0.764652     0.008887
AG3463   AG        0.349579    0.264231    0.722700     0.008887
AG3464   AG        0.391521    0.231065    0.726149     0.008887
AG3465   AG        0.387581    0.258624    0.770577     0.008887
AG3466   AG        0.426481    0.220534    0.773397     0.008887
NI3467   NI        0.413400    0.273437    0.715392     0.004307
AG3468   AG        0.447968    0.233817    0.721551     0.008887
AG3469   AG        0.442197    0.271026    0.755851     0.008887
AG3470   AG        0.476722    0.227772    0.767076     0.008887
NI3471   NI        0.480892    0.272746    0.714709     0.004307
AG3472   AG        0.509815    0.233782    0.725016     0.008887
AG3473   AG        0.513132    0.268379    0.763106     0.008887
AG3474   AG        0.531696    0.221504    0.779341     0.008887
AG3475   AG        0.549535    0.269898    0.724705     0.008887
AG3476   AG        0.566183    0.223614    0.738412     0.008887
AG3477   AG        0.572102    0.262121    0.774917     0.008887
AG3478   AG        0.612907    0.225112    0.773689     0.008887
AG3479   AG        0.608511    0.263283    0.736492     0.008887
AG3480   AG        0.651069    0.225760    0.735624     0.008887
AG3481   AG        0.648920    0.263548    0.779169     0.008887
AG3482   AG        0.685483    0.268174    0.736546     0.008887
AG3483   AG        0.149842    0.309919    0.732737     0.008887
AG3484   AG        0.192023    0.310820    0.770168     0.008887
AG3485   AG        0.188712    0.349613    0.727823     0.008887
AG3486   AG        0.230023    0.312969    0.726837     0.008887
AG3487   AG        0.228198    0.352943    0.771544     0.008887
AG3488   AG        0.264885    0.316347    0.767330     0.008887
AG3489   AG        0.276039    0.337228    0.716391     0.008887
AG3490   AG        0.312426    0.301343    0.717471     0.008887
AG3491   AG        0.312283    0.337708    0.755752     0.008887
AG3492   AG        0.353546    0.304403    0.761569     0.008887
NI3493   NI        0.342940    0.343245    0.716142     0.004307
NI3494   NI        0.379005    0.306317    0.712489     0.004307
NI3495   NI        0.377064    0.345457    0.745639     0.004307
AG3496   AG        0.404484    0.308642    0.754825     0.008887
NI3497   NI        0.413190    0.339430    0.713224     0.004307
NI3498   NI        0.445520    0.306666    0.715692     0.004307
NI3499   NI        0.443982    0.341078    0.750287     0.004307
AG3500   AG        0.480037    0.306130    0.753040     0.008887
NI3501   NI        0.476973    0.342034    0.713871     0.004307
NI3502   NI        0.513308    0.307694    0.716184     0.004307
NI3503   NI        0.510164    0.345328    0.753755     0.004307
AG3504   AG        0.546787    0.309533    0.760321     0.008887
NI3505   NI        0.544441    0.342924    0.720957     0.004307
AG3506   AG        0.585887    0.311116    0.725335     0.008887
AG3507   AG        0.582429    0.347484    0.763845     0.008887
AG3508   AG        0.607900    0.303447    0.781577     0.008887
AG3509   AG        0.623317    0.352553    0.726095     0.008887
AG3510   AG        0.646664    0.307698    0.741907     0.008887
AG3511   AG        0.655986    0.342542    0.783443     0.008887
AG3512   AG        0.691900    0.301082    0.788310     0.008887
AG3513   AG        0.686258    0.342026    0.738632     0.008887
AG3514   AG        0.726796    0.305499    0.743950     0.008887
AG3515   AG        0.095469    0.419511    0.740596     0.008887
AG3516   AG        0.141787    0.384446    0.737023     0.008887
AG3517   AG        0.135031    0.413923    0.783182     0.008887
AG3518   AG        0.178894    0.377278    0.775896     0.008887
AG3519   AG        0.195570    0.406256    0.728404     0.008887
AG3520   AG        0.236093    0.373104    0.720191     0.008887
AG3521   AG        0.233468    0.405066    0.765494     0.008887
AG3522   AG        0.275260    0.375523    0.758189     0.008887
NI3523   NI        0.271272    0.408639    0.720729     0.004307
NI3524   NI        0.307051    0.376290    0.718025     0.004307
AG3525   AG        0.305602    0.416009    0.758762     0.008887
NI3526   NI        0.342509    0.379148    0.749457     0.004307
NI3527   NI        0.344840    0.407567    0.714579     0.004307
NI3528   NI        0.379773    0.374946    0.712258     0.004307
NI3529   NI        0.380724    0.405593    0.746712     0.004307
NI3530   NI        0.413193    0.373683    0.745741     0.004307
NI3531   NI        0.413197    0.407678    0.710821     0.004307
NI3532   NI        0.443993    0.372644    0.712328     0.004307
NI3533   NI        0.445731    0.409703    0.744434     0.004307
NI3534   NI        0.476375    0.372645    0.747985     0.004307
NI3535   NI        0.477686    0.407189    0.713995     0.004307
NI3536   NI        0.512024    0.372605    0.713697     0.004307
NI3537   NI        0.510477    0.405256    0.747465     0.004307
NI3538   NI        0.546462    0.377502    0.752186     0.004307
NI3539   NI        0.543924    0.406118    0.712609     0.004307
NI3540   NI        0.579358    0.376283    0.717855     0.004307
AG3541   AG        0.578371    0.411946    0.758000     0.008887
AG3542   AG        0.619778    0.379377    0.770577     0.008887
NI3543   NI        0.611465    0.408058    0.717127     0.004307
AG3544   AG        0.657166    0.396729    0.738280     0.008887
AG3545   AG        0.670927    0.390520    0.794728     0.008887
AG3546   AG        0.707469    0.351487    0.789966     0.008887
AG3547   AG        0.713463    0.385958    0.744711     0.008887
AG3548   AG        0.747243    0.346843    0.752748     0.008887
AG3549   AG        0.728367    0.402230    0.791667     0.008887
AG3550   AG        0.770157    0.397467    0.760590     0.008887
AG3551   AG        0.109471    0.474778    0.736208     0.008887
AG3552   AG        0.150311    0.438324    0.732177     0.008887
AG3553   AG        0.149885    0.476727    0.774323     0.008887
AG3554   AG        0.186560    0.438467    0.774796     0.008887
AG3555   AG        0.188646    0.479080    0.737956     0.008887
AG3556   AG        0.234868    0.446303    0.726500     0.008887
AG3557   AG        0.221533    0.487652    0.777450     0.008887
AG3558   AG        0.262004    0.449319    0.772067     0.008887
NI3559   NI        0.280250    0.473590    0.720731     0.004307
NI3560   NI        0.306916    0.438532    0.713009     0.004307
AG3561   AG        0.310012    0.467256    0.758488     0.008887
NI3562   NI        0.348866    0.439703    0.749412     0.004307
NI3563   NI        0.341475    0.473817    0.716360     0.004307
NI3564   NI        0.379019    0.441448    0.714076     0.004307
NI3565   NI        0.381180    0.474236    0.746315     0.004307
NI3566   NI        0.411832    0.440972    0.745244     0.004307
NI3567   NI        0.410997    0.476867    0.715080     0.004307
NI3568   NI        0.448672    0.441584    0.712623     0.004307
NI3569   NI        0.445472    0.475245    0.746877     0.004307
NI3570   NI        0.480944    0.441243    0.748880     0.004307
NI3571   NI        0.479727    0.475493    0.712035     0.004307
NI3572   NI        0.511179    0.441508    0.711718     0.004307
NI3573   NI        0.511717    0.476350    0.745638     0.004307
NI3574   NI        0.540970    0.439756    0.744508     0.004307
NI3575   NI        0.547259    0.477185    0.713196     0.004307
NI3576   NI        0.577422    0.441683    0.713654     0.004307
AG3577   AG        0.584784    0.463835    0.760945     0.008887
AG3578   AG        0.625563    0.429323    0.776097     0.008887
NI3579   NI        0.611983    0.477668    0.719094     0.004307
AG3580   AG        0.643154    0.443328    0.726149     0.008887
AG3581   AG        0.649662    0.477547    0.767272     0.008887
AG3582   AG        0.686582    0.434373    0.767759     0.008887
AG3583   AG        0.691106    0.476512    0.734989     0.008887
AG3584   AG        0.733891    0.441640    0.748108     0.008887
AG3585   AG        0.743240    0.452448    0.800023     0.008887
AG3586   AG        0.787879    0.457197    0.767816     0.008887
AG3587   AG        0.141998    0.522158    0.743044     0.008887
AG3588   AG        0.180771    0.522623    0.782737     0.008887
AG3589   AG        0.194222    0.534659    0.730547     0.008887
AG3590   AG        0.237209    0.498446    0.725264     0.008887
AG3591   AG        0.232317    0.539268    0.766568     0.008887
AG3592   AG        0.271237    0.501843    0.765159     0.008887
AG3593   AG        0.269139    0.541689    0.723572     0.008887
NI3594   NI        0.310687    0.508792    0.719583     0.004307
AG3595   AG        0.309051    0.538690    0.761067     0.008887
NI3596   NI        0.344676    0.504957    0.751032     0.004307
NI3597   NI        0.345594    0.539970    0.716941     0.004307
NI3598   NI        0.374625    0.509814    0.711766     0.004307
NI3599   NI        0.375795    0.538990    0.750578     0.004307
NI3600   NI        0.411434    0.509016    0.746876     0.004307
NI3601   NI        0.410354    0.540838    0.713353     0.004307
NI3602   NI        0.446718    0.512029    0.712255     0.004307
NI3603   NI        0.446491    0.538796    0.750071     0.004307
NI3604   NI        0.479302    0.507161    0.748883     0.004307
NI3605   NI        0.478836    0.544171    0.715865     0.004307
NI3606   NI        0.511667    0.511314    0.713635     0.004307
NI3607   NI        0.512650    0.542802    0.748723     0.004307
NI3608   NI        0.548538    0.505466    0.750667     0.004307
NI3609   NI        0.544878    0.544156    0.716276     0.004307
NI3610   NI        0.580198    0.511091    0.717750     0.004307
AG3611   AG        0.565781    0.549115    0.763729     0.008887
AG3612   AG        0.606340    0.510792    0.766788     0.008887
AG3613   AG        0.608621    0.550035    0.725400     0.008887
AG3614   AG        0.645907    0.512316    0.729307     0.008887
AG3615   AG        0.655479    0.526557    0.783013     0.008887
AG3616   AG        0.694633    0.489129    0.790945     0.008887
AG3617   AG        0.696379    0.522816    0.746008     0.008887
AG3618   AG        0.740271    0.494530    0.759803     0.008887
AG3619   AG        0.151078    0.574166    0.730185     0.008887
AG3620   AG        0.190577    0.576610    0.769667     0.008887
AG3621   AG        0.190677    0.616477    0.729178     0.008887
AG3622   AG        0.227838    0.577923    0.730476     0.008887
AG3623   AG        0.231659    0.615017    0.770511     0.008887
AG3624   AG        0.270808    0.578242    0.767091     0.008887
AG3625   AG        0.272558    0.613958    0.729243     0.008887
AG3626   AG        0.309870    0.577174    0.723491     0.008887
AG3627   AG        0.311669    0.618967    0.770194     0.008887
AG3628   AG        0.348532    0.578412    0.759949     0.008887
AG3629   AG        0.345382    0.618527    0.725530     0.008887
NI3630   NI        0.375668    0.576672    0.715372     0.004307
AG3631   AG        0.385206    0.617211    0.765344     0.008887
AG3632   AG        0.409117    0.572365    0.753504     0.008887
NI3633   NI        0.412012    0.608926    0.716622     0.004307
NI3634   NI        0.443239    0.574198    0.718315     0.004307
AG3635   AG        0.437252    0.614351    0.766994     0.008887
AG3636   AG        0.476787    0.578753    0.752940     0.008887
NI3637   NI        0.473278    0.614320    0.719066     0.004307
NI3638   NI        0.509896    0.578727    0.715017     0.004307
AG3639   AG        0.488293    0.628580    0.770281     0.008887
AG3640   AG        0.527379    0.589899    0.762688     0.008887
AG3641   AG        0.522700    0.628617    0.726721     0.008887
AG3642   AG        0.563269    0.588503    0.726113     0.008887
AG3643   AG        0.575816    0.601138    0.782855     0.008887
AG3644   AG        0.614704    0.562612    0.780061     0.008887
AG3645   AG        0.616804    0.599948    0.742397     0.008887
AG3646   AG        0.657423    0.560004    0.740900     0.008887
AG3647   AG        0.654343    0.601137    0.782918     0.008887
AG3648   AG        0.694792    0.567159    0.781059     0.008887
AG3649   AG        0.692346    0.602615    0.741532     0.008887
AG3650   AG        0.735623    0.560536    0.745739     0.008887
AG3651   AG        0.232897    0.653580    0.731532     0.008887
AG3652   AG        0.271058    0.653963    0.770164     0.008887
AG3653   AG        0.269764    0.697356    0.733707     0.008887
AG3654   AG        0.311506    0.656933    0.730868     0.008887
AG3655   AG        0.308648    0.695937    0.772343     0.008887
AG3656   AG        0.349571    0.657350    0.772573     0.008887
AG3657   AG        0.348860    0.693787    0.733482     0.008887
AG3658   AG        0.384113    0.653553    0.725167     0.008887
AG3659   AG        0.361058    0.707242    0.790810     0.008887
AG3660   AG        0.405096    0.669854    0.772112     0.008887
AG3661   AG        0.403071    0.704823    0.729991     0.008887
AG3662   AG        0.433392    0.653020    0.728569     0.008887
AG3663   AG        0.458020    0.713070    0.805057     0.008887
AG3664   AG        0.454001    0.661284    0.794035     0.008887
AG3665   AG        0.446188    0.699208    0.749825     0.008887
AG3666   AG        0.478830    0.664040    0.726875     0.008887
AG3667   AG        0.499853    0.683822    0.773422     0.008887
AG3668   AG        0.540603    0.641681    0.779520     0.008887
AG3669   AG        0.545646    0.677927    0.739751     0.008887
AG3670   AG        0.576503    0.637728    0.733491     0.008887
AG3671   AG        0.573795    0.683098    0.783319     0.008887
AG3672   AG        0.615239    0.637828    0.780095     0.008887
AG3673   AG        0.615406    0.675449    0.741732     0.008887
AG3674   AG        0.654655    0.638849    0.742403     0.008887
AG3675   AG        0.311413    0.734305    0.731648     0.008887
AG3676   AG        0.371024    0.743690    0.749002     0.008887
AG3677   AG        0.410517    0.727397    0.784437     0.008887
AG3678   AG        0.421001    0.776096    0.753614     0.008887
AG3679   AG        0.470855    0.742944    0.764044     0.008887
AG3680   AG        0.507561    0.735463    0.807032     0.008887
AG3681   AG        0.511902    0.783342    0.766263     0.008887
AG3682   AG        0.519545    0.726698    0.755297     0.008887
AG3683   AG        0.580150    0.719031    0.746894     0.008887
AG3684   AG        0.337830    0.260129    0.809527     0.008887
AG3685   AG        0.384251    0.221726    0.809033     0.008887
AG3686   AG        0.428697    0.255266    0.811847     0.008887
AG3687   AG        0.461671    0.207927    0.820692     0.008887
AG3688   AG        0.460187    0.253282    0.856813     0.008887
AG3689   AG        0.497324    0.254008    0.814736     0.008887
AG3690   AG        0.527304    0.212122    0.836093     0.008887
AG3691   AG        0.578701    0.218676    0.815479     0.008887
AG3692   AG        0.272066    0.352597    0.809371     0.008887
AG3693   AG        0.308821    0.308851    0.803114     0.008887
AG3694   AG        0.312749    0.347379    0.845585     0.008887
AG3695   AG        0.344777    0.302972    0.845490     0.008887
AG3696   AG        0.353254    0.338160    0.804782     0.008887
AG3697   AG        0.386218    0.292346    0.811435     0.008887
AG3698   AG        0.386232    0.339690    0.848813     0.008887
AG3699   AG        0.425986    0.293739    0.854255     0.008887
AG3700   AG        0.416483    0.335199    0.801829     0.008887
AG3701   AG        0.460636    0.297145    0.806047     0.008887
AG3702   AG        0.468219    0.331875    0.846310     0.008887
AG3703   AG        0.503550    0.286640    0.859452     0.008887
AG3704   AG        0.475267    0.347263    0.792944     0.008887
AG3705   AG        0.508617    0.306964    0.807420     0.008887
AG3706   AG        0.516474    0.344921    0.848479     0.008887
AG3707   AG        0.550071    0.269842    0.826312     0.008887
AG3708   AG        0.563874    0.319577    0.809000     0.008887
AG3709   AG        0.607794    0.262214    0.820525     0.008887
AG3710   AG        0.597009    0.307876    0.851725     0.008887
AG3711   AG        0.645093    0.302918    0.820438     0.008887
AG3712   AG        0.221857    0.379557    0.822632     0.008887
AG3713   AG        0.274524    0.403771    0.804263     0.008887
AG3714   AG        0.316332    0.371086    0.794101     0.008887
AG3715   AG        0.268381    0.380619    0.854887     0.008887
AG3716   AG        0.318850    0.400082    0.836589     0.008887
AG3717   AG        0.349436    0.412896    0.794312     0.008887
AG3718   AG        0.385712    0.376525    0.785408     0.008887
AG3719   AG        0.373961    0.393003    0.837557     0.008887
AG3720   AG        0.432063    0.375135    0.843755     0.008887
AG3721   AG        0.395767    0.427927    0.791786     0.008887
AG3722   AG        0.436248    0.388591    0.784964     0.008887
AG3723   AG        0.447149    0.428945    0.840581     0.008887
AG3724   AG        0.480603    0.381692    0.833466     0.008887
AG3725   AG        0.482569    0.407207    0.788146     0.008887
AG3726   AG        0.527714    0.361589    0.796351     0.008887
AG3727   AG        0.533831    0.397894    0.838778     0.008887
AG3728   AG        0.569511    0.357767    0.853143     0.008887
AG3729   AG        0.576941    0.385214    0.807047     0.008887
AG3730   AG        0.611946    0.346501    0.821205     0.008887
AG3731   AG        0.622784    0.365975    0.873088     0.008887
AG3732   AG        0.628511    0.400134    0.823765     0.008887
AG3733   AG        0.663057    0.355553    0.836514     0.008887
AG3734   AG        0.226473    0.441841    0.814228     0.008887
AG3735   AG        0.270713    0.439105    0.847199     0.008887
AG3736   AG        0.263112    0.483100    0.818063     0.008887
AG3737   AG        0.307182    0.445840    0.807660     0.008887
AG3738   AG        0.307889    0.481991    0.851942     0.008887
AG3739   AG        0.349189    0.444058    0.840602     0.008887
AG3740   AG        0.309999    0.501245    0.802331     0.008887
AG3741   AG        0.352479    0.470975    0.790071     0.008887
AG3742   AG        0.366049    0.496489    0.832057     0.008887
AG3743   AG        0.400598    0.451319    0.840146     0.008887
AG3744   AG        0.412677    0.481513    0.794354     0.008887
AG3745   AG        0.444716    0.441774    0.785337     0.008887
AG3746   AG        0.448480    0.481703    0.831759     0.008887
AG3747   AG        0.499114    0.441533    0.826150     0.008887
AG3748   AG        0.481939    0.476179    0.792510     0.008887
AG3749   AG        0.535847    0.413315    0.788432     0.008887
AG3750   AG        0.533069    0.483701    0.840008     0.008887
AG3751   AG        0.586922    0.412047    0.858455     0.008887
AG3752   AG        0.535417    0.465970    0.789217     0.008887
AG3753   AG        0.580641    0.438780    0.807965     0.008887
AG3754   AG        0.578943    0.474308    0.852646     0.008887
AG3755   AG        0.629609    0.452355    0.856105     0.008887
AG3756   AG        0.616706    0.480298    0.809473     0.008887
AG3757   AG        0.663296    0.445175    0.814448     0.008887
AG3758   AG        0.225949    0.521955    0.820716     0.008887
AG3759   AG        0.229332    0.573355    0.808332     0.008887
AG3760   AG        0.272302    0.538763    0.804245     0.008887
AG3761   AG        0.282593    0.573183    0.849049     0.008887
AG3762   AG        0.322192    0.533579    0.844447     0.008887
AG3763   AG        0.316518    0.572541    0.804836     0.008887
AG3764   AG        0.350913    0.532038    0.792248     0.008887
AG3765   AG        0.375665    0.549120    0.844482     0.008887
AG3766   AG        0.427912    0.532271    0.838543     0.008887
AG3767   AG        0.404723    0.529126    0.791435     0.008887
AG3768   AG        0.457389    0.523801    0.793614     0.008887
AG3769   AG        0.468004    0.565206    0.850244     0.008887
AG3770   AG        0.489285    0.517839    0.837043     0.008887
AG3771   AG        0.494449    0.563844    0.802452     0.008887
AG3772   AG        0.518589    0.516280    0.789937     0.008887
AG3773   AG        0.517611    0.562886    0.855366     0.008887
AG3774   AG        0.564149    0.528451    0.859592     0.008887
AG3775   AG        0.557409    0.558693    0.816326     0.008887
AG3776   AG        0.566988    0.507496    0.803782     0.008887
AG3777   AG        0.608822    0.532514    0.826351     0.008887
AG3778   AG        0.661945    0.562186    0.823865     0.008887
AG3779   AG        0.660478    0.504072    0.835441     0.008887
AG3780   AG        0.275861    0.616811    0.810501     0.008887
AG3781   AG        0.346142    0.614839    0.811948     0.008887
AG3782   AG        0.312426    0.662525    0.813908     0.008887
AG3783   AG        0.387871    0.582199    0.804848     0.008887
AG3784   AG        0.419480    0.590515    0.847896     0.008887
AG3785   AG        0.408793    0.630845    0.812737     0.008887
AG3786   AG        0.440259    0.571227    0.797090     0.008887
AG3787   AG        0.444947    0.653856    0.852070     0.008887
AG3788   AG        0.495327    0.619412    0.865764     0.008887
AG3789   AG        0.461826    0.613540    0.817609     0.008887
AG3790   AG        0.527864    0.603284    0.818952     0.008887
AG3791   AG        0.570732    0.599034    0.855703     0.008887
AG3792   AG        0.569901    0.640974    0.823527     0.008887
AG3793   AG        0.614344    0.597468    0.820928     0.008887
AG3794   AG        0.365214    0.664796    0.826163     0.008887
AG3795   AG        0.410376    0.687213    0.822170     0.008887
AG3796   AG        0.500766    0.651828    0.818951     0.008887
AG3797   AG        0.405561    0.409019    0.880035     0.008887
AG3798   AG        0.465874    0.371634    0.886532     0.008887
AG3799   AG        0.485475    0.419586    0.874966     0.008887
AG3800   AG        0.376521    0.455203    0.888373     0.008887
AG3801   AG        0.405161    0.501298    0.881754     0.008887
AG3802   AG        0.435591    0.454211    0.887333     0.008887
AG3803   AG        0.485510    0.471005    0.869050     0.008887
AG3804   AG        0.534828    0.440762    0.872800     0.008887
AG3805   AG        0.456912    0.514980    0.881024     0.008887
