data_00001
_audit_creation_method   'DISCUS'

_data_chemical_name_common 'Au.cell: Pearson 85'

_cell_length_a             61.1835
_cell_length_b             65.2624
_cell_length_c             61.1835
_cell_angle_alpha     90.0000
_cell_angle_beta      90.0000
_cell_angle_gamma     90.0000

_symmetry_space_group_name_H-M   'P1              '

loop_
_atom_site_label
_atom_site_symbol
_atom_site_fract_x
_atom_site_fract_y
_atom_site_fract_z
_atom_site_u_iso_or_equiv
AU1   AU        0.388090    0.278864    0.093412     0.007504
AU2   AU        0.453883    0.281969    0.090980     0.007504
AU3   AU        0.516836    0.280888    0.090450     0.007504
AU4   AU        0.322574    0.347625    0.091267     0.007504
AU5   AU        0.355037    0.315337    0.095009     0.007504
AU6   AU        0.387702    0.346011    0.090832     0.007504
AU7   AU        0.421943    0.311876    0.089151     0.007504
AU8   AU        0.455084    0.345977    0.090737     0.007504
AU9   AU        0.488101    0.313647    0.090869     0.007504
AU10   AU        0.518172    0.343792    0.088831     0.007504
AU11   AU        0.549678    0.310957    0.088982     0.007504
AU12   AU        0.583556    0.344760    0.090414     0.007504
AU13   AU        0.286013    0.377556    0.092005     0.007504
AU14   AU        0.323847    0.408071    0.088969     0.007504
AU15   AU        0.355947    0.376455    0.091032     0.007504
AU16   AU        0.390518    0.406535    0.094860     0.007504
AU17   AU        0.423254    0.376452    0.091891     0.007504
AU18   AU        0.421486    0.404702    0.057352     0.007504
AU19   AU        0.455180    0.373408    0.055025     0.007504
AU20   AU        0.454844    0.408216    0.092260     0.007504
AU21   AU        0.487111    0.376283    0.090593     0.007504
AU22   AU        0.487817    0.404084    0.058315     0.007504
AU23   AU        0.518123    0.406508    0.095997     0.007504
AU24   AU        0.551240    0.375947    0.091404     0.007504
AU25   AU        0.585549    0.406255    0.093248     0.007504
AU26   AU        0.615686    0.374774    0.092410     0.007504
AU27   AU        0.284734    0.432296    0.092810     0.007504
AU28   AU        0.321066    0.466293    0.092538     0.007504
AU29   AU        0.356976    0.437474    0.095326     0.007504
AU30   AU        0.387131    0.435228    0.057290     0.007504
AU31   AU        0.388882    0.467440    0.093894     0.007504
AU32   AU        0.421464    0.437273    0.092999     0.007504
AU33   AU        0.420263    0.466437    0.057239     0.007504
AU34   AU        0.453548    0.437830    0.055942     0.007504
AU35   AU        0.452544    0.469284    0.090892     0.007504
AU36   AU        0.483749    0.440053    0.093413     0.007504
AU37   AU        0.487080    0.467994    0.057444     0.007504
AU38   AU        0.518952    0.437367    0.061979     0.007504
AU39   AU        0.519996    0.468771    0.094488     0.007504
AU40   AU        0.552403    0.437253    0.095747     0.007504
AU41   AU        0.584968    0.468091    0.094121     0.007504
PD42   PD        0.617118    0.466086    0.055624     0.005394
AU43   AU        0.289303    0.497899    0.090760     0.007504
AU44   AU        0.321447    0.528990    0.091217     0.007504
AU45   AU        0.356497    0.496882    0.091746     0.007504
AU46   AU        0.386989    0.533536    0.089036     0.007504
AU47   AU        0.418934    0.501119    0.090701     0.007504
AU48   AU        0.453749    0.498865    0.058528     0.007504
AU49   AU        0.453787    0.528712    0.094119     0.007504
AU50   AU        0.487423    0.498086    0.096453     0.007504
AU51   AU        0.517150    0.528394    0.092420     0.007504
AU52   AU        0.551919    0.498793    0.094418     0.007504
AU53   AU        0.584264    0.529995    0.090763     0.007504
AU54   AU        0.615586    0.499911    0.091653     0.007504
PD55   PD        0.447983    0.561711    0.000667     0.005394
AU56   AU        0.386022    0.590065    0.091434     0.007504
AU57   AU        0.421991    0.560853    0.090436     0.007504
AU58   AU        0.457672    0.588554    0.091885     0.007504
AU59   AU        0.487375    0.557732    0.093210     0.007504
AU60   AU        0.518527    0.588598    0.093859     0.007504
AU61   AU        0.550221    0.557957    0.092948     0.007504
AU62   AU        0.324984    0.220541    0.154711     0.007504
AU63   AU        0.389532    0.218502    0.157655     0.007504
PD64   PD        0.385535    0.150172    0.161678     0.005394
PD65   PD        0.402182    0.164556    0.060592     0.005394
AU66   AU        0.453433    0.222751    0.157897     0.007504
AU67   AU        0.487536    0.191420    0.155286     0.007504
AU68   AU        0.484112    0.220672    0.122931     0.007504
AU69   AU        0.520560    0.222584    0.156581     0.007504
AU70   AU        0.586033    0.220785    0.155879     0.007504
AU71   AU        0.255060    0.284115    0.159565     0.007504
PD72   PD        0.219485    0.247195    0.161948     0.005394
AU73   AU        0.288933    0.280092    0.125640     0.007504
AU74   AU        0.324898    0.284726    0.158641     0.007504
AU75   AU        0.356615    0.254073    0.160035     0.007504
AU76   AU        0.358735    0.284021    0.125537     0.007504
AU77   AU        0.388450    0.248461    0.125306     0.007504
AU78   AU        0.390336    0.283388    0.159628     0.007504
AU79   AU        0.421651    0.251738    0.159658     0.007504
AU80   AU        0.420447    0.281006    0.125002     0.007504
AU81   AU        0.455533    0.252149    0.123527     0.007504
AU82   AU        0.454143    0.281832    0.158767     0.007504
AU83   AU        0.486510    0.251793    0.157779     0.007504
AU84   AU        0.487588    0.284549    0.126480     0.007504
AU85   AU        0.515536    0.252164    0.122577     0.007504
AU86   AU        0.518091    0.284194    0.160980     0.007504
AU87   AU        0.550965    0.253159    0.157212     0.007504
AU88   AU        0.552686    0.283498    0.125160     0.007504
AU89   AU        0.584819    0.285141    0.160252     0.007504
AU90   AU        0.619772    0.254556    0.155520     0.007504
AU91   AU        0.615109    0.284625    0.121504     0.007504
PD92   PD        0.597157    0.170924    0.060792     0.005394
AU93   AU        0.221376    0.316157    0.160729     0.007504
AU94   AU        0.256637    0.344206    0.159392     0.007504
AU95   AU        0.289801    0.312552    0.159338     0.007504
AU96   AU        0.289360    0.343318    0.127530     0.007504
AU97   AU        0.321063    0.282373    0.094476     0.007504
AU98   AU        0.323983    0.344643    0.160967     0.007504
AU99   AU        0.358339    0.313950    0.158968     0.007504
AU100   AU        0.354313    0.344072    0.127134     0.007504
AU101   AU        0.390798    0.315686    0.126918     0.007504
PD102   PD        0.390083    0.344400    0.161780     0.005394
AU103   AU        0.422574    0.314404    0.161989     0.007504
AU104   AU        0.420067    0.344671    0.122772     0.007504
AU105   AU        0.453047    0.313074    0.125060     0.007504
PD106   PD        0.453901    0.346097    0.161160     0.005394
AU107   AU        0.486735    0.314649    0.160517     0.007504
AU108   AU        0.485980    0.344060    0.124402     0.007504
AU109   AU        0.518932    0.316616    0.125407     0.007504
PD110   PD        0.519601    0.342904    0.159887     0.005394
AU111   AU        0.551784    0.314240    0.161232     0.007504
AU112   AU        0.552772    0.345216    0.125326     0.007504
AU113   AU        0.584468    0.315424    0.125836     0.007504
AU114   AU        0.584957    0.344544    0.163076     0.007504
AU115   AU        0.618067    0.314396    0.159400     0.007504
AU116   AU        0.617576    0.346450    0.126919     0.007504
AU117   AU        0.650250    0.346795    0.157708     0.007504
AU118   AU        0.686677    0.317968    0.154981     0.007504
AU119   AU        0.186273    0.403865    0.156608     0.007504
AU120   AU        0.221554    0.373991    0.158906     0.007504
AU121   AU        0.221886    0.404037    0.127414     0.007504
AU122   AU        0.255561    0.373930    0.124059     0.007504
AU123   AU        0.258214    0.405537    0.160843     0.007504
AU124   AU        0.292722    0.375399    0.160082     0.007504
AU125   AU        0.287235    0.404740    0.125920     0.007504
AU126   AU        0.324648    0.375642    0.125998     0.007504
AU127   AU        0.324464    0.405806    0.162751     0.007504
PD128   PD        0.357167    0.375896    0.161690     0.005394
AU129   AU        0.355032    0.405387    0.126291     0.007504
AU130   AU        0.388556    0.373760    0.126482     0.007504
PD131   PD        0.390597    0.403663    0.159764     0.005394
PD132   PD        0.423623    0.375468    0.159006     0.005394
AU133   AU        0.423042    0.405968    0.127286     0.007504
AU134   AU        0.455518    0.374684    0.124781     0.007504
PD135   PD        0.455138    0.404386    0.162537     0.005394
PD136   PD        0.487839    0.375383    0.163262     0.005394
AU137   AU        0.485918    0.407415    0.129036     0.007504
AU138   AU        0.519783    0.374123    0.127149     0.007504
PD139   PD        0.517186    0.405690    0.161100     0.005394
PD140   PD        0.550737    0.373207    0.160752     0.005394
AU141   AU        0.550973    0.404472    0.129013     0.007504
AU142   AU        0.584026    0.376357    0.128782     0.007504
AU143   AU        0.584527    0.406358    0.162644     0.007504
AU144   AU        0.616735    0.375537    0.161954     0.007504
AU145   AU        0.617808    0.408095    0.128430     0.007504
AU146   AU        0.651494    0.378281    0.123100     0.007504
AU147   AU        0.649353    0.405788    0.160314     0.007504
AU148   AU        0.684959    0.375816    0.155668     0.007504
AU149   AU        0.682909    0.410706    0.123676     0.007504
AU150   AU        0.719947    0.407049    0.155644     0.007504
AU151   AU        0.184984    0.468110    0.156630     0.007504
AU152   AU        0.220840    0.435831    0.158237     0.007504
AU153   AU        0.189542    0.437975    0.122914     0.007504
AU154   AU        0.255237    0.438819    0.127441     0.007504
AU155   AU        0.257345    0.466663    0.160473     0.007504
AU156   AU        0.291879    0.435818    0.160260     0.007504
AU157   AU        0.289564    0.465862    0.123688     0.007504
AU158   AU        0.323740    0.435322    0.126923     0.007504
AU159   AU        0.324251    0.466281    0.160270     0.007504
PD160   PD        0.356755    0.435592    0.159611     0.005394
AU161   AU        0.357338    0.467771    0.128091     0.007504
AU162   AU        0.389802    0.438403    0.128235     0.007504
PD163   PD        0.390289    0.468927    0.159553     0.005394
PD164   PD        0.421578    0.435788    0.162326     0.005394
AU165   AU        0.422439    0.466636    0.127630     0.007504
AU166   AU        0.453146    0.436334    0.128473     0.007504
PD167   PD        0.453796    0.468775    0.161000     0.005394
PD168   PD        0.485289    0.435762    0.161531     0.005394
AU169   AU        0.486775    0.466984    0.129827     0.007504
AU170   AU        0.519701    0.437978    0.129428     0.007504
PD171   PD        0.520988    0.467383    0.163629     0.005394
PD172   PD        0.553056    0.438300    0.162461     0.005394
AU173   AU        0.552799    0.467390    0.128068     0.007504
AU174   AU        0.584324    0.434979    0.129519     0.007504
AU175   AU        0.585550    0.467149    0.160455     0.007504
AU176   AU        0.618089    0.437352    0.160178     0.007504
AU177   AU        0.616499    0.467562    0.127691     0.007504
AU178   AU        0.649045    0.438886    0.127021     0.007504
AU179   AU        0.650738    0.467901    0.158931     0.007504
AU180   AU        0.685128    0.439233    0.157965     0.007504
AU181   AU        0.686046    0.465697    0.123331     0.007504
AU182   AU        0.721911    0.469552    0.155978     0.007504
AU183   AU        0.221339    0.496136    0.156871     0.007504
AU184   AU        0.256698    0.497621    0.126230     0.007504
AU185   AU        0.255418    0.527641    0.159228     0.007504
AU186   AU        0.288074    0.496056    0.158618     0.007504
AU187   AU        0.288080    0.530593    0.124747     0.007504
AU188   AU        0.322099    0.497829    0.124627     0.007504
AU189   AU        0.323555    0.527030    0.158843     0.007504
AU190   AU        0.357179    0.498960    0.160348     0.007504
AU191   AU        0.357257    0.527335    0.123842     0.007504
AU192   AU        0.390204    0.498031    0.125350     0.007504
AU193   AU        0.388882    0.526979    0.160421     0.007504
PD194   PD        0.423406    0.498216    0.160396     0.005394
AU195   AU        0.419304    0.529641    0.125417     0.007504
AU196   AU        0.454116    0.497852    0.126297     0.007504
PD197   PD        0.454537    0.528538    0.159484     0.005394
PD198   PD        0.487762    0.499818    0.161020     0.005394
AU199   AU        0.486675    0.527633    0.127801     0.007504
AU200   AU        0.520350    0.498474    0.128737     0.007504
AU201   AU        0.519419    0.528917    0.162804     0.007504
AU202   AU        0.552729    0.499622    0.161017     0.007504
AU203   AU        0.550960    0.529311    0.127617     0.007504
AU204   AU        0.584279    0.500088    0.126005     0.007504
AU205   AU        0.583697    0.528748    0.160772     0.007504
AU206   AU        0.618564    0.498661    0.158260     0.007504
AU207   AU        0.618347    0.530162    0.125845     0.007504
AU208   AU        0.650881    0.494821    0.123765     0.007504
AU209   AU        0.650585    0.528099    0.157597     0.007504
AU210   AU        0.685095    0.498985    0.158621     0.007504
PD211   PD        0.213303    0.590364    0.141953     0.005394
AU212   AU        0.258504    0.590477    0.158944     0.007504
AU213   AU        0.291776    0.557668    0.160492     0.007504
PD214   PD        0.340167    0.569046    0.081469     0.005394
AU215   AU        0.324354    0.558325    0.124452     0.007504
AU216   AU        0.323094    0.588991    0.158645     0.007504
AU217   AU        0.355609    0.557961    0.160219     0.007504
AU218   AU        0.351139    0.592502    0.121693     0.007504
AU219   AU        0.386824    0.560075    0.124252     0.007504
AU220   AU        0.387167    0.589088    0.158257     0.007504
AU221   AU        0.420151    0.557679    0.160960     0.007504
AU222   AU        0.420943    0.588280    0.125364     0.007504
AU223   AU        0.452094    0.558894    0.125629     0.007504
AU224   AU        0.453886    0.589913    0.161024     0.007504
AU225   AU        0.485182    0.558891    0.160963     0.007504
AU226   AU        0.486933    0.587843    0.127918     0.007504
AU227   AU        0.518386    0.558487    0.127987     0.007504
AU228   AU        0.517191    0.589104    0.163403     0.007504
AU229   AU        0.551916    0.559047    0.160630     0.007504
AU230   AU        0.552105    0.587691    0.126661     0.007504
AU231   AU        0.583860    0.557659    0.126816     0.007504
AU232   AU        0.581410    0.621258    0.123943     0.007504
AU233   AU        0.617953    0.559196    0.161685     0.007504
AU234   AU        0.615222    0.590980    0.123047     0.007504
AU235   AU        0.650269    0.592013    0.156436     0.007504
AU236   AU        0.681178    0.560645    0.157437     0.007504
AU237   AU        0.292135    0.619766    0.160451     0.007504
AU238   AU        0.322780    0.654218    0.159903     0.007504
AU239   AU        0.353248    0.621408    0.156520     0.007504
AU240   AU        0.385125    0.623261    0.124304     0.007504
AU241   AU        0.390022    0.651860    0.158052     0.007504
AU242   AU        0.419710    0.619045    0.159543     0.007504
AU243   AU        0.422481    0.649012    0.125044     0.007504
AU244   AU        0.455150    0.619972    0.126764     0.007504
AU245   AU        0.453952    0.650846    0.160496     0.007504
AU246   AU        0.487854    0.620928    0.159374     0.007504
AU247   AU        0.488619    0.649031    0.125304     0.007504
AU248   AU        0.520979    0.619361    0.128258     0.007504
AU249   AU        0.520741    0.651257    0.158236     0.007504
AU250   AU        0.551224    0.618119    0.162046     0.007504
AU251   AU        0.583616    0.650687    0.161665     0.007504
AU252   AU        0.616273    0.619385    0.157256     0.007504
AU253   AU        0.423077    0.683012    0.157176     0.007504
AU254   AU        0.488923    0.683164    0.154836     0.007504
AU255   AU        0.326658    0.155714    0.224288     0.007504
AU256   AU        0.389903    0.158560    0.224898     0.007504
AU257   AU        0.426800    0.125715    0.219434     0.007504
AU258   AU        0.421802    0.158216    0.190399     0.007504
AU259   AU        0.456781    0.159756    0.222766     0.007504
AU260   AU        0.488436    0.127496    0.222177     0.007504
AU261   AU        0.486588    0.160014    0.189220     0.007504
AU262   AU        0.521882    0.158079    0.222423     0.007504
AU263   AU        0.585179    0.160164    0.221828     0.007504
AU264   AU        0.260501    0.220233    0.225357     0.007504
AU265   AU        0.291858    0.188863    0.225948     0.007504
AU266   AU        0.292448    0.219724    0.190277     0.007504
AU267   AU        0.324787    0.188637    0.192100     0.007504
AU268   AU        0.323777    0.220157    0.224473     0.007504
AU269   AU        0.356445    0.189456    0.225910     0.007504
AU270   AU        0.355236    0.221856    0.190947     0.007504
AU271   AU        0.387915    0.188200    0.190072     0.007504
AU272   AU        0.389225    0.220637    0.225047     0.007504
AU273   AU        0.420658    0.190098    0.222608     0.007504
AU274   AU        0.420296    0.221192    0.192506     0.007504
AU275   AU        0.454223    0.190153    0.189920     0.007504
AU276   AU        0.454447    0.220363    0.224023     0.007504
AU277   AU        0.486619    0.190625    0.223189     0.007504
AU278   AU        0.486109    0.222954    0.189816     0.007504
AU279   AU        0.519195    0.191077    0.189712     0.007504
AU280   AU        0.519253    0.221055    0.221128     0.007504
AU281   AU        0.551734    0.189395    0.223188     0.007504
AU282   AU        0.553814    0.221257    0.191541     0.007504
AU283   AU        0.586636    0.190746    0.187504     0.007504
AU284   AU        0.587499    0.219177    0.226694     0.007504
AU285   AU        0.619768    0.187355    0.223816     0.007504
AU286   AU        0.619646    0.222776    0.191032     0.007504
AU287   AU        0.649034    0.223568    0.227427     0.007504
AU288   AU        0.190290    0.283346    0.224589     0.007504
AU289   AU        0.225233    0.250490    0.225109     0.007504
AU290   AU        0.221917    0.284130    0.190546     0.007504
AU291   AU        0.257704    0.252123    0.189415     0.007504
AU292   AU        0.256083    0.281514    0.227628     0.007504
AU293   AU        0.291938    0.251780    0.223929     0.007504
AU294   AU        0.291655    0.284107    0.191733     0.007504
AU295   AU        0.324593    0.252192    0.191484     0.007504
PD296   PD        0.325240    0.283920    0.224095     0.005394
AU297   AU        0.356239    0.253573    0.225156     0.007504
AU298   AU        0.356195    0.283029    0.193745     0.007504
AU299   AU        0.388005    0.251013    0.192355     0.007504
PD300   PD        0.392125    0.284355    0.226901     0.005394
PD301   PD        0.421863    0.251721    0.224935     0.005394
PD302   PD        0.420220    0.284073    0.194381     0.005394
AU303   AU        0.452384    0.253232    0.193087     0.007504
PD304   PD        0.453724    0.284733    0.227579     0.005394
PD305   PD        0.486216    0.252421    0.225659     0.005394
PD306   PD        0.486428    0.281846    0.192653     0.005394
AU307   AU        0.518858    0.253726    0.193204     0.007504
PD308   PD        0.520058    0.283104    0.225635     0.005394
AU309   AU        0.551952    0.251809    0.225899     0.007504
AU310   AU        0.551937    0.283998    0.194865     0.007504
AU311   AU        0.584185    0.253325    0.194128     0.007504
AU312   AU        0.583846    0.282995    0.227556     0.007504
AU313   AU        0.616852    0.253724    0.228270     0.007504
AU314   AU        0.617829    0.285220    0.194448     0.007504
AU315   AU        0.651091    0.254829    0.190797     0.007504
AU316   AU        0.649297    0.283643    0.226848     0.007504
AU317   AU        0.684052    0.250452    0.226394     0.007504
PD318   PD        0.709688    0.278162    0.159652     0.005394
AU319   AU        0.716144    0.282772    0.225961     0.007504
PD320   PD        0.093931    0.284271    0.192239     0.005394
AU321   AU        0.184559    0.315036    0.192416     0.007504
AU322   AU        0.190341    0.343413    0.226739     0.007504
AU323   AU        0.223625    0.312265    0.226263     0.007504
AU324   AU        0.222826    0.344106    0.194255     0.007504
AU325   AU        0.256934    0.312793    0.194281     0.007504
AU326   AU        0.259286    0.343574    0.227148     0.007504
PD327   PD        0.292858    0.311498    0.227890     0.005394
AU328   AU        0.291653    0.341435    0.194197     0.007504
PD329   PD        0.325695    0.314214    0.193982     0.005394
PD330   PD        0.324084    0.342240    0.227105     0.005394
PD331   PD        0.357772    0.312595    0.225621     0.005394
PD332   PD        0.358456    0.341368    0.194902     0.005394
PD333   PD        0.391988    0.311467    0.193692     0.005394
PD334   PD        0.388870    0.344411    0.227677     0.005394
PD335   PD        0.422976    0.313560    0.226506     0.005394
PD336   PD        0.423658    0.343143    0.194897     0.005394
PD337   PD        0.456380    0.312148    0.193955     0.005394
PD338   PD        0.455196    0.344160    0.228334     0.005394
PD339   PD        0.485135    0.311494    0.228966     0.005394
PD340   PD        0.485949    0.344794    0.193993     0.005394
PD341   PD        0.519644    0.315798    0.196725     0.005394
PD342   PD        0.519889    0.344611    0.225169     0.005394
PD343   PD        0.552288    0.315899    0.228656     0.005394
PD344   PD        0.551627    0.345467    0.195391     0.005394
AU345   AU        0.583965    0.314234    0.194684     0.007504
PD346   PD        0.583655    0.347203    0.225249     0.005394
PD347   PD        0.616134    0.314175    0.228669     0.005394
AU348   AU        0.618556    0.344513    0.193799     0.007504
AU349   AU        0.652704    0.315423    0.191439     0.007504
PD350   PD        0.650720    0.343425    0.226393     0.005394
AU351   AU        0.685167    0.313105    0.225194     0.007504
AU352   AU        0.683998    0.347259    0.191176     0.007504
AU353   AU        0.716867    0.314369    0.190896     0.007504
AU354   AU        0.717155    0.344907    0.225312     0.007504
AU355   AU        0.748976    0.314719    0.225302     0.007504
AU356   AU        0.120245    0.403259    0.224059     0.007504
AU357   AU        0.158252    0.372469    0.227692     0.007504
AU358   AU        0.155343    0.402361    0.191169     0.007504
AU359   AU        0.190755    0.373568    0.193432     0.007504
AU360   AU        0.192400    0.406976    0.224860     0.007504
AU361   AU        0.225656    0.374915    0.226612     0.007504
AU362   AU        0.223798    0.405030    0.190770     0.007504
AU363   AU        0.258632    0.374907    0.192289     0.007504
PD364   PD        0.256742    0.403801    0.224357     0.005394
PD365   PD        0.292505    0.375391    0.225695     0.005394
PD366   PD        0.291819    0.407392    0.194047     0.005394
PD367   PD        0.326711    0.373456    0.194147     0.005394
PD368   PD        0.323871    0.405247    0.225252     0.005394
PD369   PD        0.354388    0.374429    0.226947     0.005394
PD370   PD        0.357274    0.403995    0.194658     0.005394
PD371   PD        0.389708    0.374380    0.193848     0.005394
PD372   PD        0.391835    0.404630    0.227538     0.005394
PD373   PD        0.423580    0.373636    0.227906     0.005394
PD374   PD        0.423269    0.404720    0.195828     0.005394
PD375   PD        0.453831    0.375301    0.196641     0.005394
PD376   PD        0.455083    0.405907    0.226637     0.005394
PD377   PD        0.489248    0.374071    0.227658     0.005394
PD378   PD        0.486761    0.407448    0.195023     0.005394
PD379   PD        0.519001    0.374706    0.191687     0.005394
PD380   PD        0.519261    0.406598    0.227012     0.005394
PD381   PD        0.549698    0.375944    0.225949     0.005394
PD382   PD        0.552136    0.405180    0.194014     0.005394
PD383   PD        0.582833    0.376936    0.193683     0.005394
PD384   PD        0.584333    0.407811    0.226773     0.005394
PD385   PD        0.617222    0.375729    0.228030     0.005394
PD386   PD        0.617783    0.404080    0.197617     0.005394
AU387   AU        0.649215    0.376328    0.194506     0.007504
PD388   PD        0.648614    0.405346    0.226740     0.005394
AU389   AU        0.683450    0.375687    0.224952     0.007504
AU390   AU        0.683335    0.407887    0.190889     0.007504
AU391   AU        0.716303    0.377194    0.190647     0.007504
AU392   AU        0.713228    0.406493    0.225582     0.007504
AU393   AU        0.747186    0.378634    0.225554     0.007504
AU394   AU        0.751635    0.407831    0.188746     0.007504
PD395   PD        0.812648    0.420614    0.134261     0.005394
AU396   AU        0.121038    0.465889    0.223404     0.007504
AU397   AU        0.156443    0.436043    0.223732     0.007504
AU398   AU        0.153484    0.466569    0.189039     0.007504
AU399   AU        0.187611    0.436146    0.190901     0.007504
AU400   AU        0.190609    0.464980    0.227397     0.007504
AU401   AU        0.225471    0.436197    0.223094     0.007504
AU402   AU        0.222573    0.466324    0.191228     0.007504
AU403   AU        0.257056    0.434409    0.192275     0.007504
PD404   PD        0.257194    0.466601    0.226263     0.005394
PD405   PD        0.290095    0.437401    0.226369     0.005394
PD406   PD        0.292507    0.464611    0.193545     0.005394
PD407   PD        0.324173    0.434782    0.195328     0.005394
PD408   PD        0.325661    0.465464    0.223599     0.005394
PD409   PD        0.356102    0.437593    0.228012     0.005394
PD410   PD        0.358911    0.465797    0.191161     0.005394
PD411   PD        0.388327    0.435680    0.193044     0.005394
PD412   PD        0.388504    0.467324    0.225755     0.005394
PD413   PD        0.421222    0.436058    0.227268     0.005394
PD414   PD        0.420801    0.465949    0.194215     0.005394
PD415   PD        0.454110    0.437325    0.194628     0.005394
PD416   PD        0.452745    0.466045    0.227692     0.005394
PD417   PD        0.489250    0.436937    0.225353     0.005394
PD418   PD        0.486754    0.470026    0.192290     0.005394
PD419   PD        0.519153    0.438664    0.192960     0.005394
PD420   PD        0.520377    0.469207    0.228377     0.005394
PD421   PD        0.550708    0.436129    0.228805     0.005394
PD422   PD        0.551619    0.465964    0.194594     0.005394
PD423   PD        0.585344    0.435543    0.197701     0.005394
PD424   PD        0.584853    0.468239    0.228946     0.005394
PD425   PD        0.617378    0.436117    0.227900     0.005394
PD426   PD        0.617635    0.466625    0.194480     0.005394
AU427   AU        0.649884    0.436492    0.194089     0.007504
AU428   AU        0.649093    0.466565    0.227801     0.007504
AU429   AU        0.681235    0.436407    0.225322     0.007504
AU430   AU        0.683144    0.467075    0.193071     0.007504
AU431   AU        0.718406    0.438261    0.190563     0.007504
AU432   AU        0.714204    0.465678    0.224941     0.007504
AU433   AU        0.748607    0.437536    0.225350     0.007504
AU434   AU        0.752311    0.466179    0.191284     0.007504
AU435   AU        0.785270    0.464674    0.224142     0.007504
AU436   AU        0.159130    0.494970    0.226187     0.007504
AU437   AU        0.191019    0.496424    0.192957     0.007504
AU438   AU        0.193536    0.526598    0.227697     0.007504
AU439   AU        0.225444    0.497161    0.227149     0.007504
AU440   AU        0.224654    0.525182    0.193112     0.007504
AU441   AU        0.258213    0.495728    0.194451     0.007504
AU442   AU        0.258622    0.526934    0.227317     0.007504
PD443   PD        0.290323    0.495615    0.227781     0.005394
AU444   AU        0.292601    0.526785    0.192961     0.007504
PD445   PD        0.321353    0.495641    0.191212     0.005394
PD446   PD        0.325277    0.527932    0.224940     0.005394
PD447   PD        0.355619    0.496565    0.225080     0.005394
PD448   PD        0.354319    0.527209    0.192653     0.005394
PD449   PD        0.390405    0.497458    0.192749     0.005394
PD450   PD        0.388618    0.527651    0.227318     0.005394
PD451   PD        0.421128    0.496648    0.225602     0.005394
PD452   PD        0.421520    0.528121    0.194431     0.005394
PD453   PD        0.454091    0.498284    0.196882     0.005394
PD454   PD        0.452174    0.528229    0.226188     0.005394
PD455   PD        0.488301    0.496499    0.226596     0.005394
PD456   PD        0.484733    0.528168    0.193987     0.005394
PD457   PD        0.519384    0.499037    0.192556     0.005394
PD458   PD        0.519658    0.526970    0.226798     0.005394
PD459   PD        0.552215    0.497862    0.226119     0.005394
PD460   PD        0.552637    0.528237    0.193917     0.005394
PD461   PD        0.584673    0.498333    0.194574     0.005394
PD462   PD        0.587697    0.528821    0.228394     0.005394
PD463   PD        0.615469    0.497942    0.227400     0.005394
AU464   AU        0.617611    0.528461    0.195230     0.007504
AU465   AU        0.649412    0.498364    0.192928     0.007504
PD466   PD        0.648697    0.528608    0.227189     0.005394
AU467   AU        0.681958    0.497568    0.226047     0.007504
AU468   AU        0.684054    0.529429    0.193258     0.007504
AU469   AU        0.717691    0.495459    0.193180     0.007504
AU470   AU        0.716106    0.528432    0.225257     0.007504
AU471   AU        0.751285    0.495455    0.224577     0.007504
AU472   AU        0.158861    0.557703    0.224974     0.007504
AU473   AU        0.191866    0.555414    0.193426     0.007504
AU474   AU        0.190202    0.588467    0.227239     0.007504
AU475   AU        0.226867    0.558031    0.224901     0.007504
AU476   AU        0.223152    0.589515    0.190399     0.007504
AU477   AU        0.258468    0.557356    0.193053     0.007504
AU478   AU        0.259646    0.588830    0.225597     0.007504
PD479   PD        0.291183    0.558179    0.225990     0.005394
AU480   AU        0.290928    0.588841    0.190986     0.007504
AU481   AU        0.322524    0.557854    0.193069     0.007504
PD482   PD        0.322581    0.587274    0.226432     0.005394
PD483   PD        0.354436    0.558201    0.226485     0.005394
AU484   AU        0.356715    0.588862    0.193083     0.007504
PD485   PD        0.390316    0.557392    0.195494     0.005394
PD486   PD        0.391372    0.588688    0.226897     0.005394
PD487   PD        0.421883    0.558719    0.229082     0.005394
PD488   PD        0.421935    0.588296    0.194886     0.005394
PD489   PD        0.451735    0.556792    0.193481     0.005394
PD490   PD        0.455999    0.588981    0.225688     0.005394
PD491   PD        0.485773    0.554780    0.228739     0.005394
PD492   PD        0.485452    0.588979    0.193075     0.005394
PD493   PD        0.519861    0.560594    0.194821     0.005394
PD494   PD        0.516054    0.587149    0.226339     0.005394
PD495   PD        0.550363    0.558972    0.226652     0.005394
AU496   AU        0.550175    0.589870    0.196486     0.007504
AU497   AU        0.583666    0.559207    0.192665     0.007504
AU498   AU        0.584563    0.589410    0.225953     0.007504
PD499   PD        0.617832    0.558802    0.225773     0.005394
AU500   AU        0.619896    0.590525    0.192411     0.007504
AU501   AU        0.650673    0.560052    0.195000     0.007504
AU502   AU        0.651801    0.590492    0.226388     0.007504
AU503   AU        0.684252    0.559268    0.228421     0.007504
AU504   AU        0.683782    0.593503    0.189312     0.007504
AU505   AU        0.716653    0.559476    0.191970     0.007504
AU506   AU        0.719385    0.590236    0.225551     0.007504
AU507   AU        0.750762    0.559292    0.225099     0.007504
AU508   AU        0.223865    0.618940    0.224817     0.007504
AU509   AU        0.256893    0.619652    0.193882     0.007504
AU510   AU        0.253790    0.651546    0.226428     0.007504
AU511   AU        0.292813    0.619518    0.225645     0.007504
AU512   AU        0.290090    0.650278    0.194101     0.007504
AU513   AU        0.326313    0.620099    0.192473     0.007504
AU514   AU        0.324388    0.651076    0.226673     0.007504
AU515   AU        0.357655    0.617435    0.227188     0.007504
AU516   AU        0.358359    0.650154    0.191330     0.007504
AU517   AU        0.389679    0.617628    0.193454     0.007504
AU518   AU        0.390285    0.650804    0.227521     0.007504
PD519   PD        0.420856    0.619675    0.226887     0.005394
AU520   AU        0.421160    0.650750    0.192828     0.007504
AU521   AU        0.454623    0.620220    0.193129     0.007504
PD522   PD        0.456592    0.648828    0.228276     0.005394
PD523   PD        0.487138    0.618704    0.228046     0.005394
AU524   AU        0.485983    0.650392    0.194278     0.007504
AU525   AU        0.515869    0.619255    0.195604     0.007504
AU526   AU        0.517694    0.649993    0.227899     0.007504
AU527   AU        0.551148    0.619651    0.228559     0.007504
AU528   AU        0.550265    0.650240    0.194137     0.007504
AU529   AU        0.584122    0.618709    0.194516     0.007504
AU530   AU        0.583566    0.649745    0.227862     0.007504
AU531   AU        0.617436    0.619792    0.227075     0.007504
AU532   AU        0.617236    0.653051    0.192291     0.007504
AU533   AU        0.650515    0.622188    0.192234     0.007504
AU534   AU        0.650937    0.650983    0.226835     0.007504
AU535   AU        0.684737    0.620964    0.226327     0.007504
AU536   AU        0.288696    0.682543    0.227834     0.007504
AU537   AU        0.321098    0.682483    0.196243     0.007504
PD538   PD        0.287737    0.714170    0.190711     0.005394
AU539   AU        0.356433    0.681730    0.224721     0.007504
AU540   AU        0.387677    0.681792    0.190870     0.007504
AU541   AU        0.389458    0.712280    0.226063     0.007504
AU542   AU        0.421437    0.682178    0.224154     0.007504
AU543   AU        0.421653    0.714392    0.191160     0.007504
AU544   AU        0.455544    0.683325    0.192468     0.007504
AU545   AU        0.454688    0.713681    0.224138     0.007504
AU546   AU        0.486447    0.682891    0.227218     0.007504
AU547   AU        0.486774    0.714402    0.187982     0.007504
AU548   AU        0.517454    0.682951    0.192566     0.007504
AU549   AU        0.519247    0.713146    0.224387     0.007504
AU550   AU        0.551532    0.681362    0.226350     0.007504
AU551   AU        0.584247    0.683329    0.194258     0.007504
AU552   AU        0.579260    0.715547    0.225860     0.007504
AU553   AU        0.616346    0.680193    0.227145     0.007504
AU554   AU        0.423970    0.749176    0.222824     0.007504
AU555   AU        0.486539    0.747739    0.223033     0.007504
AU556   AU        0.390104    0.091679    0.286409     0.007504
AU557   AU        0.455926    0.094304    0.289949     0.007504
AU558   AU        0.521588    0.093616    0.287662     0.007504
AU559   AU        0.258491    0.158562    0.290702     0.007504
AU560   AU        0.287371    0.123636    0.293677     0.007504
AU561   AU        0.290105    0.157084    0.257898     0.007504
AU562   AU        0.324765    0.157562    0.290119     0.007504
PD563   PD        0.319526    0.087578    0.297434     0.005394
AU564   AU        0.358599    0.157687    0.256963     0.007504
AU565   AU        0.392814    0.126048    0.252409     0.007504
AU566   AU        0.390003    0.157548    0.289605     0.007504
AU567   AU        0.423538    0.124683    0.289995     0.007504
AU568   AU        0.423007    0.159061    0.254665     0.007504
AU569   AU        0.455204    0.127415    0.257811     0.007504
AU570   AU        0.454435    0.156693    0.291159     0.007504
AU571   AU        0.488718    0.124927    0.290143     0.007504
AU572   AU        0.487673    0.159207    0.258101     0.007504
AU573   AU        0.520351    0.125293    0.256650     0.007504
AU574   AU        0.519621    0.156720    0.291756     0.007504
AU575   AU        0.549723    0.125097    0.291248     0.007504
AU576   AU        0.552727    0.156173    0.258270     0.007504
AU577   AU        0.582485    0.156347    0.294501     0.007504
AU578   AU        0.616983    0.123182    0.291245     0.007504
AU579   AU        0.614433    0.154421    0.258916     0.007504
AU580   AU        0.649241    0.154038    0.291530     0.007504
AU581   AU        0.188294    0.219951    0.292604     0.007504
AU582   AU        0.223546    0.186509    0.290841     0.007504
AU583   AU        0.224693    0.218808    0.259004     0.007504
AU584   AU        0.259232    0.192973    0.260163     0.007504
AU585   AU        0.258001    0.219374    0.294159     0.007504
AU586   AU        0.292202    0.190827    0.291415     0.007504
AU587   AU        0.292016    0.223221    0.260743     0.007504
AU588   AU        0.325260    0.187933    0.258007     0.007504
AU589   AU        0.325451    0.222180    0.293146     0.007504
AU590   AU        0.357019    0.189957    0.291167     0.007504
AU591   AU        0.355577    0.221082    0.258159     0.007504
AU592   AU        0.388723    0.189910    0.259048     0.007504
PD593   PD        0.389027    0.223781    0.290881     0.005394
PD594   PD        0.420521    0.192058    0.293399     0.005394
PD595   PD        0.423075    0.221277    0.260174     0.005394
PD596   PD        0.453592    0.190614    0.256985     0.005394
PD597   PD        0.456399    0.219772    0.292625     0.005394
PD598   PD        0.485577    0.190849    0.294453     0.005394
PD599   PD        0.485508    0.219288    0.259391     0.005394
AU600   AU        0.518315    0.190690    0.259616     0.007504
PD601   PD        0.520958    0.220329    0.292402     0.005394
PD602   PD        0.552795    0.189463    0.290659     0.005394
AU603   AU        0.551577    0.219217    0.256190     0.007504
AU604   AU        0.585337    0.186984    0.259038     0.007504
PD605   PD        0.585283    0.219048    0.287941     0.005394
AU606   AU        0.617061    0.186200    0.292202     0.007504
AU607   AU        0.619130    0.218000    0.260977     0.007504
AU608   AU        0.649139    0.185119    0.259678     0.007504
AU609   AU        0.651222    0.218132    0.292475     0.007504
AU610   AU        0.685205    0.186538    0.289310     0.007504
AU611   AU        0.683875    0.219801    0.257780     0.007504
PD612   PD        0.826251    0.137045    0.241965     0.005394
AU613   AU        0.124736    0.280974    0.290986     0.007504
AU614   AU        0.155804    0.250313    0.292664     0.007504
AU615   AU        0.160071    0.281451    0.259613     0.007504
AU616   AU        0.191772    0.250308    0.259478     0.007504
AU617   AU        0.193331    0.282007    0.294010     0.007504
AU618   AU        0.223230    0.249551    0.293386     0.007504
AU619   AU        0.225824    0.282256    0.261388     0.007504
AU620   AU        0.259107    0.250217    0.259559     0.007504
PD621   PD        0.260560    0.282188    0.290048     0.005394
PD622   PD        0.291100    0.253210    0.293069     0.005394
PD623   PD        0.293766    0.282155    0.259975     0.005394
PD624   PD        0.323500    0.253678    0.259517     0.005394
PD625   PD        0.325414    0.284488    0.291529     0.005394
PD626   PD        0.357674    0.252036    0.291129     0.005394
PD627   PD        0.357846    0.282595    0.258897     0.005394
PD628   PD        0.390478    0.251518    0.260390     0.005394
PD629   PD        0.389026    0.284696    0.290651     0.005394
PD630   PD        0.422529    0.253407    0.292960     0.005394
PD631   PD        0.422530    0.282954    0.259743     0.005394
PD632   PD        0.455552    0.251958    0.263675     0.005394
PD633   PD        0.454513    0.283263    0.294053     0.005394
PD634   PD        0.488651    0.252178    0.293990     0.005394
PD635   PD        0.488846    0.282501    0.261289     0.005394
PD636   PD        0.519337    0.249097    0.255343     0.005394
PD637   PD        0.519152    0.281350    0.292887     0.005394
PD638   PD        0.553817    0.250908    0.290459     0.005394
PD639   PD        0.552649    0.282402    0.260809     0.005394
PD640   PD        0.585044    0.251543    0.259692     0.005394
PD641   PD        0.583372    0.282812    0.293881     0.005394
PD642   PD        0.618200    0.251733    0.293577     0.005394
PD643   PD        0.613721    0.283539    0.260690     0.005394
AU644   AU        0.648680    0.252392    0.259926     0.007504
PD645   PD        0.650754    0.286483    0.290582     0.005394
AU646   AU        0.681898    0.253414    0.292818     0.007504
AU647   AU        0.682500    0.282923    0.259257     0.007504
AU648   AU        0.716160    0.251001    0.262203     0.007504
AU649   AU        0.713574    0.285029    0.292083     0.007504
AU650   AU        0.752786    0.253582    0.293121     0.007504
AU651   AU        0.748072    0.285014    0.260123     0.007504
AU652   AU        0.783782    0.287090    0.287661     0.007504
AU653   AU        0.127328    0.345347    0.291517     0.007504
AU654   AU        0.160758    0.313330    0.292937     0.007504
AU655   AU        0.159526    0.342464    0.259906     0.007504
AU656   AU        0.191931    0.313191    0.260461     0.007504
AU657   AU        0.195225    0.344786    0.292449     0.007504
PD658   PD        0.229973    0.314095    0.291175     0.005394
AU659   AU        0.226411    0.344616    0.258043     0.007504
PD660   PD        0.260631    0.312317    0.258262     0.005394
PD661   PD        0.258396    0.344880    0.291691     0.005394
PD662   PD        0.292232    0.310730    0.292688     0.005394
PD663   PD        0.293023    0.341069    0.259896     0.005394
PD664   PD        0.326738    0.312400    0.258114     0.005394
PD665   PD        0.322702    0.344082    0.292637     0.005394
PD666   PD        0.357927    0.314320    0.294371     0.005394
PD667   PD        0.355288    0.343948    0.259481     0.005394
PD668   PD        0.389105    0.313714    0.259140     0.005394
PD669   PD        0.389204    0.345048    0.291581     0.005394
PD670   PD        0.422294    0.314355    0.293587     0.005394
PD671   PD        0.420954    0.345262    0.260080     0.005394
PD672   PD        0.454492    0.313793    0.261520     0.005394
PD673   PD        0.454012    0.344006    0.291301     0.005394
PD674   PD        0.490269    0.312966    0.291606     0.005394
PD675   PD        0.488048    0.341711    0.260136     0.005394
PD676   PD        0.518750    0.311050    0.260303     0.005394
PD677   PD        0.519420    0.343118    0.291052     0.005394
PD678   PD        0.549943    0.313177    0.294262     0.005394
PD679   PD        0.550585    0.344910    0.256871     0.005394
PD680   PD        0.582251    0.315461    0.258688     0.005394
PD681   PD        0.583341    0.346054    0.292733     0.005394
PD682   PD        0.615976    0.313798    0.290834     0.005394
PD683   PD        0.615417    0.345494    0.258544     0.005394
PD684   PD        0.649581    0.315181    0.258329     0.005394
PD685   PD        0.647914    0.344003    0.292141     0.005394
PD686   PD        0.681728    0.315115    0.291352     0.005394
PD687   PD        0.679235    0.344992    0.259887     0.005394
AU688   AU        0.715690    0.316278    0.259281     0.007504
AU689   AU        0.714264    0.345515    0.292519     0.007504
AU690   AU        0.748583    0.315350    0.292583     0.007504
AU691   AU        0.748185    0.346729    0.259192     0.007504
AU692   AU        0.782961    0.346108    0.291429     0.007504
AU693   AU        0.088826    0.372032    0.290159     0.007504
AU694   AU        0.122750    0.376441    0.258474     0.007504
AU695   AU        0.126808    0.405319    0.290434     0.007504
AU696   AU        0.161871    0.375166    0.291814     0.007504
AU697   AU        0.159624    0.405243    0.257425     0.007504
AU698   AU        0.193893    0.375918    0.259666     0.007504
PD699   PD        0.193750    0.406025    0.293526     0.005394
PD700   PD        0.225196    0.375729    0.292887     0.005394
PD701   PD        0.228826    0.405809    0.260683     0.005394
PD702   PD        0.261168    0.374967    0.257449     0.005394
PD703   PD        0.258220    0.404267    0.291108     0.005394
PD704   PD        0.290900    0.375828    0.291515     0.005394
PD705   PD        0.290265    0.406114    0.257667     0.005394
PD706   PD        0.323009    0.374847    0.257743     0.005394
PD707   PD        0.324528    0.406165    0.292197     0.005394
PD708   PD        0.356098    0.375003    0.293177     0.005394
PD709   PD        0.356366    0.403460    0.258199     0.005394
PD710   PD        0.389054    0.375719    0.260064     0.005394
PD711   PD        0.391694    0.406080    0.290800     0.005394
PD712   PD        0.421733    0.374267    0.292079     0.005394
PD713   PD        0.422187    0.407029    0.259975     0.005394
PD714   PD        0.455669    0.373536    0.259298     0.005394
PD715   PD        0.454342    0.404805    0.293543     0.005394
PD716   PD        0.487891    0.376018    0.293331     0.005394
PD717   PD        0.488540    0.406275    0.261037     0.005394
PD718   PD        0.519123    0.376181    0.261783     0.005394
PD719   PD        0.519787    0.407743    0.293593     0.005394
PD720   PD        0.551887    0.376085    0.291603     0.005394
PD721   PD        0.552509    0.405468    0.260251     0.005394
PD722   PD        0.585351    0.376297    0.258466     0.005394
PD723   PD        0.584404    0.406624    0.292194     0.005394
PD724   PD        0.615201    0.374122    0.292481     0.005394
PD725   PD        0.615294    0.405075    0.260708     0.005394
PD726   PD        0.648906    0.374822    0.259452     0.005394
PD727   PD        0.649474    0.404415    0.291437     0.005394
PD728   PD        0.680483    0.374524    0.291822     0.005394
PD729   PD        0.682815    0.407146    0.258505     0.005394
AU730   AU        0.713374    0.374534    0.259586     0.007504
PD731   PD        0.712879    0.407902    0.292424     0.005394
AU732   AU        0.747170    0.376350    0.291539     0.007504
AU733   AU        0.749043    0.406451    0.258727     0.007504
AU734   AU        0.786265    0.373702    0.254523     0.007504
AU735   AU        0.783135    0.404505    0.289241     0.007504
AU736   AU        0.818966    0.375904    0.290090     0.007504
AU737   AU        0.089156    0.435760    0.288621     0.007504
AU738   AU        0.122855    0.435436    0.256737     0.007504
AU739   AU        0.125160    0.463321    0.292031     0.007504
AU740   AU        0.160151    0.434005    0.293078     0.007504
AU741   AU        0.157856    0.465614    0.259216     0.007504
AU742   AU        0.194013    0.435359    0.259728     0.007504
PD743   PD        0.193948    0.465867    0.292891     0.005394
PD744   PD        0.227152    0.434536    0.290570     0.005394
PD745   PD        0.226286    0.468005    0.260862     0.005394
PD746   PD        0.260676    0.435487    0.258406     0.005394
PD747   PD        0.258918    0.465147    0.292449     0.005394
PD748   PD        0.291664    0.434660    0.293125     0.005394
PD749   PD        0.289720    0.466570    0.259178     0.005394
PD750   PD        0.323344    0.435881    0.257196     0.005394
PD751   PD        0.322932    0.468997    0.293209     0.005394
PD752   PD        0.355129    0.436304    0.292756     0.005394
PD753   PD        0.356118    0.467153    0.261656     0.005394
PD754   PD        0.389306    0.435696    0.260331     0.005394
PD755   PD        0.389358    0.466331    0.293990     0.005394
PD756   PD        0.422796    0.435941    0.292705     0.005394
PD757   PD        0.422942    0.466126    0.258986     0.005394
PD758   PD        0.453642    0.437117    0.260382     0.005394
PD759   PD        0.453302    0.466063    0.291758     0.005394
PD760   PD        0.486511    0.435601    0.292321     0.005394
PD761   PD        0.487333    0.467184    0.260128     0.005394
PD762   PD        0.519342    0.435658    0.261170     0.005394
PD763   PD        0.519864    0.465171    0.294869     0.005394
PD764   PD        0.552085    0.435272    0.294961     0.005394
PD765   PD        0.550534    0.465417    0.261306     0.005394
PD766   PD        0.583084    0.435837    0.261136     0.005394
PD767   PD        0.586429    0.466256    0.294795     0.005394
PD768   PD        0.617769    0.435800    0.291635     0.005394
PD769   PD        0.618274    0.464833    0.259607     0.005394
PD770   PD        0.650175    0.435857    0.260528     0.005394
PD771   PD        0.649595    0.467941    0.294047     0.005394
PD772   PD        0.680708    0.435705    0.292527     0.005394
PD773   PD        0.683370    0.466519    0.260886     0.005394
AU774   AU        0.713710    0.435413    0.257788     0.007504
PD775   PD        0.715281    0.465083    0.292209     0.005394
AU776   AU        0.748837    0.436589    0.289912     0.007504
AU777   AU        0.748019    0.466523    0.257928     0.007504
AU778   AU        0.783617    0.433350    0.255169     0.007504
AU779   AU        0.782286    0.466815    0.289940     0.007504
AU780   AU        0.818543    0.433982    0.289644     0.007504
PD781   PD        0.081647    0.477963    0.278374     0.005394
AU782   AU        0.125047    0.495353    0.258290     0.007504
AU783   AU        0.127096    0.526801    0.291173     0.007504
AU784   AU        0.160691    0.495133    0.291579     0.007504
AU785   AU        0.159163    0.526992    0.259293     0.007504
AU786   AU        0.191999    0.494650    0.259336     0.007504
AU787   AU        0.193713    0.526115    0.291874     0.007504
PD788   PD        0.228519    0.496871    0.293046     0.005394
AU789   AU        0.225485    0.526215    0.260534     0.007504
PD790   PD        0.257422    0.496394    0.261411     0.005394
PD791   PD        0.259352    0.526179    0.293055     0.005394
PD792   PD        0.289999    0.496284    0.292877     0.005394
PD793   PD        0.293048    0.527963    0.257836     0.005394
PD794   PD        0.323858    0.495292    0.257753     0.005394
PD795   PD        0.324357    0.528413    0.291918     0.005394
PD796   PD        0.356807    0.497733    0.292879     0.005394
PD797   PD        0.355358    0.527414    0.257039     0.005394
PD798   PD        0.388330    0.498206    0.259700     0.005394
PD799   PD        0.389966    0.528162    0.293536     0.005394
PD800   PD        0.422528    0.496903    0.293673     0.005394
PD801   PD        0.421133    0.524715    0.260024     0.005394
PD802   PD        0.454027    0.495294    0.258580     0.005394
PD803   PD        0.455411    0.527012    0.292529     0.005394
PD804   PD        0.484809    0.497030    0.292235     0.005394
PD805   PD        0.485531    0.526909    0.260107     0.005394
PD806   PD        0.518360    0.497510    0.261836     0.005394
PD807   PD        0.521171    0.527500    0.292348     0.005394
PD808   PD        0.550597    0.497105    0.292420     0.005394
PD809   PD        0.551882    0.527791    0.259010     0.005394
PD810   PD        0.585152    0.496019    0.260702     0.005394
PD811   PD        0.585419    0.526870    0.291145     0.005394
PD812   PD        0.617906    0.495767    0.290107     0.005394
PD813   PD        0.619067    0.527931    0.260057     0.005394
PD814   PD        0.649992    0.497323    0.257940     0.005394
PD815   PD        0.650809    0.527332    0.293220     0.005394
PD816   PD        0.679036    0.496810    0.289543     0.005394
PD817   PD        0.683047    0.527527    0.257703     0.005394
AU818   AU        0.715482    0.496022    0.258369     0.007504
AU819   AU        0.714522    0.526384    0.288913     0.007504
AU820   AU        0.749714    0.496212    0.290907     0.007504
AU821   AU        0.748701    0.527865    0.258340     0.007504
AU822   AU        0.783610    0.497296    0.258761     0.007504
AU823   AU        0.782924    0.529220    0.290706     0.007504
AU824   AU        0.815412    0.497997    0.290879     0.007504
AU825   AU        0.123497    0.589606    0.293512     0.007504
AU826   AU        0.162016    0.558181    0.292850     0.007504
AU827   AU        0.158400    0.586498    0.260155     0.007504
AU828   AU        0.194766    0.557719    0.259524     0.007504
AU829   AU        0.195005    0.589428    0.290545     0.007504
PD830   PD        0.228222    0.557671    0.291918     0.005394
AU831   AU        0.226539    0.589602    0.257499     0.007504
PD832   PD        0.257913    0.559610    0.259183     0.005394
PD833   PD        0.260036    0.589315    0.290005     0.005394
PD834   PD        0.291170    0.556434    0.288998     0.005394
PD835   PD        0.292445    0.588482    0.259808     0.005394
PD836   PD        0.324878    0.559484    0.259428     0.005394
PD837   PD        0.324417    0.588814    0.293277     0.005394
PD838   PD        0.355604    0.557968    0.290956     0.005394
PD839   PD        0.356469    0.588923    0.258890     0.005394
PD840   PD        0.387288    0.557274    0.259249     0.005394
PD841   PD        0.391651    0.588226    0.291164     0.005394
PD842   PD        0.422577    0.558781    0.290722     0.005394
PD843   PD        0.421687    0.587472    0.257749     0.005394
PD844   PD        0.454547    0.555394    0.260151     0.005394
PD845   PD        0.453830    0.588952    0.294020     0.005394
PD846   PD        0.486844    0.557947    0.291885     0.005394
PD847   PD        0.486987    0.587245    0.260775     0.005394
PD848   PD        0.519234    0.558573    0.259192     0.005394
PD849   PD        0.519388    0.587857    0.293529     0.005394
PD850   PD        0.552700    0.559213    0.292645     0.005394
PD851   PD        0.551319    0.587910    0.259719     0.005394
PD852   PD        0.584127    0.557546    0.260472     0.005394
PD853   PD        0.583466    0.588310    0.292610     0.005394
PD854   PD        0.617214    0.558245    0.292897     0.005394
PD855   PD        0.616064    0.588596    0.260433     0.005394
PD856   PD        0.649692    0.559145    0.259646     0.005394
PD857   PD        0.649518    0.588267    0.293424     0.005394
PD858   PD        0.681139    0.557557    0.289136     0.005394
AU859   AU        0.683838    0.590324    0.258346     0.007504
AU860   AU        0.717636    0.560607    0.259327     0.007504
AU861   AU        0.713885    0.588399    0.293127     0.007504
AU862   AU        0.747833    0.558301    0.293243     0.007504
AU863   AU        0.752173    0.592106    0.257910     0.007504
AU864   AU        0.786661    0.588610    0.289088     0.007504
AU865   AU        0.159003    0.619033    0.292544     0.007504
PD866   PD        0.158399    0.644101    0.253105     0.005394
AU867   AU        0.191363    0.648874    0.291398     0.007504
AU868   AU        0.227229    0.618612    0.292599     0.007504
PD869   PD        0.224838    0.651314    0.190371     0.005394
AU870   AU        0.259698    0.619224    0.257987     0.007504
AU871   AU        0.260722    0.650160    0.291193     0.007504
PD872   PD        0.293610    0.618502    0.292239     0.005394
AU873   AU        0.292932    0.648614    0.260041     0.007504
PD874   PD        0.325379    0.619694    0.258493     0.005394
PD875   PD        0.325782    0.651070    0.293131     0.005394
PD876   PD        0.356689    0.618871    0.292508     0.005394
AU877   AU        0.358079    0.650479    0.259208     0.007504
PD878   PD        0.390561    0.618637    0.258068     0.005394
PD879   PD        0.389854    0.648811    0.292548     0.005394
PD880   PD        0.422191    0.619534    0.292438     0.005394
PD881   PD        0.422979    0.650426    0.260576     0.005394
PD882   PD        0.456280    0.619567    0.261522     0.005394
PD883   PD        0.456633    0.650528    0.294692     0.005394
PD884   PD        0.486082    0.619886    0.293586     0.005394
PD885   PD        0.488061    0.649476    0.260580     0.005394
PD886   PD        0.518366    0.619258    0.258985     0.005394
PD887   PD        0.518426    0.649221    0.292596     0.005394
PD888   PD        0.551334    0.618073    0.292974     0.005394
AU889   AU        0.552581    0.648955    0.261887     0.007504
PD890   PD        0.583695    0.617652    0.260643     0.005394
PD891   PD        0.584822    0.649877    0.293360     0.005394
PD892   PD        0.616877    0.617502    0.292045     0.005394
AU893   AU        0.616591    0.651016    0.261606     0.007504
AU894   AU        0.650494    0.621113    0.259796     0.007504
AU895   AU        0.650462    0.649758    0.293524     0.007504
AU896   AU        0.682634    0.620588    0.292538     0.007504
AU897   AU        0.683041    0.653268    0.260678     0.007504
AU898   AU        0.717466    0.621436    0.259985     0.007504
AU899   AU        0.715719    0.653847    0.291929     0.007504
AU900   AU        0.752907    0.623009    0.292807     0.007504
PD901   PD        0.212205    0.736157    0.278864     0.005394
AU902   AU        0.255838    0.680660    0.259963     0.007504
AU903   AU        0.254446    0.713448    0.292005     0.007504
AU904   AU        0.291788    0.681704    0.291340     0.007504
AU905   AU        0.288266    0.715203    0.260943     0.007504
AU906   AU        0.323917    0.679258    0.258901     0.007504
AU907   AU        0.323887    0.713334    0.290741     0.007504
AU908   AU        0.359313    0.681003    0.291473     0.007504
AU909   AU        0.357054    0.710890    0.257904     0.007504
AU910   AU        0.391010    0.681593    0.259021     0.007504
AU911   AU        0.389288    0.713427    0.291667     0.007504
PD912   PD        0.422738    0.679715    0.292301     0.005394
AU913   AU        0.422274    0.711470    0.256928     0.007504
AU914   AU        0.456157    0.678650    0.258425     0.007504
AU915   AU        0.455766    0.712217    0.290692     0.007504
PD916   PD        0.488624    0.679167    0.293335     0.005394
AU917   AU        0.487161    0.713953    0.258413     0.007504
AU918   AU        0.519539    0.678748    0.259877     0.007504
AU919   AU        0.519269    0.713146    0.292094     0.007504
AU920   AU        0.550800    0.679848    0.293973     0.007504
AU921   AU        0.549582    0.710394    0.260796     0.007504
AU922   AU        0.583391    0.682597    0.260780     0.007504
AU923   AU        0.585440    0.713334    0.293176     0.007504
AU924   AU        0.617415    0.681658    0.293937     0.007504
AU925   AU        0.617133    0.715323    0.256223     0.007504
AU926   AU        0.650471    0.684504    0.258889     0.007504
AU927   AU        0.647881    0.717266    0.291762     0.007504
AU928   AU        0.680332    0.684027    0.291948     0.007504
AU929   AU        0.286807    0.746323    0.292236     0.007504
AU930   AU        0.356672    0.743697    0.289439     0.007504
AU931   AU        0.387793    0.743628    0.256853     0.007504
AU932   AU        0.388871    0.775676    0.287857     0.007504
AU933   AU        0.424968    0.742795    0.288888     0.007504
AU934   AU        0.455874    0.745405    0.256178     0.007504
AU935   AU        0.455176    0.777097    0.287737     0.007504
AU936   AU        0.487838    0.745460    0.290886     0.007504
AU937   AU        0.519533    0.746204    0.256708     0.007504
AU938   AU        0.521036    0.777132    0.289019     0.007504
AU939   AU        0.553233    0.744934    0.288289     0.007504
AU940   AU        0.615314    0.746159    0.287506     0.007504
PD941   PD        0.292233    0.043224    0.407060     0.005394
AU942   AU        0.356624    0.090452    0.323232     0.007504
AU943   AU        0.388410    0.092258    0.353715     0.007504
AU944   AU        0.421646    0.093407    0.321661     0.007504
AU945   AU        0.451787    0.091210    0.356868     0.007504
AU946   AU        0.487136    0.089169    0.325927     0.007504
AU947   AU        0.518402    0.090676    0.357932     0.007504
AU948   AU        0.552149    0.094654    0.322921     0.007504
AU949   AU        0.587134    0.091880    0.357267     0.007504
AU950   AU        0.225534    0.152965    0.324880     0.007504
AU951   AU        0.259751    0.155389    0.358749     0.007504
AU952   AU        0.289150    0.121613    0.356055     0.007504
AU953   AU        0.290914    0.156656    0.323841     0.007504
AU954   AU        0.324419    0.124746    0.322579     0.007504
AU955   AU        0.324231    0.158466    0.356820     0.007504
AU956   AU        0.355610    0.125423    0.354683     0.007504
AU957   AU        0.357300    0.160929    0.324890     0.007504
AU958   AU        0.386890    0.124147    0.319719     0.007504
PD959   PD        0.388946    0.159179    0.357301     0.005394
AU960   AU        0.420193    0.125297    0.356097     0.007504
AU961   AU        0.421095    0.156828    0.324359     0.007504
AU962   AU        0.454966    0.125065    0.325187     0.007504
PD963   PD        0.454953    0.158048    0.356629     0.005394
AU964   AU        0.483902    0.125469    0.360922     0.007504
AU965   AU        0.487291    0.155539    0.325111     0.007504
AU966   AU        0.517198    0.121146    0.326124     0.007504
PD967   PD        0.517530    0.159240    0.359104     0.005394
AU968   AU        0.552779    0.125136    0.356729     0.007504
AU969   AU        0.548236    0.159605    0.324586     0.007504
PD970   PD        0.621749    0.066631    0.287642     0.005394
AU971   AU        0.587258    0.156655    0.357361     0.007504
AU972   AU        0.621130    0.123243    0.357015     0.007504
AU973   AU        0.618944    0.153455    0.324487     0.007504
AU974   AU        0.652970    0.153822    0.356969     0.007504
AU975   AU        0.685443    0.155498    0.322370     0.007504
AU976   AU        0.155606    0.214849    0.323889     0.007504
AU977   AU        0.190870    0.187471    0.324149     0.007504
AU978   AU        0.187904    0.218104    0.357096     0.007504
AU979   AU        0.226863    0.186201    0.359377     0.007504
AU980   AU        0.224539    0.217522    0.327590     0.007504
AU981   AU        0.258079    0.187418    0.325477     0.007504
AU982   AU        0.260391    0.222209    0.358022     0.007504
AU983   AU        0.293020    0.190289    0.358430     0.007504
PD984   PD        0.293199    0.223080    0.325695     0.005394
AU985   AU        0.324199    0.191278    0.324213     0.007504
PD986   PD        0.324947    0.223734    0.356100     0.005394
PD987   PD        0.356627    0.188730    0.359188     0.005394
PD988   PD        0.358023    0.222934    0.326263     0.005394
PD989   PD        0.390268    0.191022    0.324304     0.005394
PD990   PD        0.388779    0.221321    0.357511     0.005394
PD991   PD        0.421607    0.191566    0.359686     0.005394
PD992   PD        0.421217    0.222147    0.324088     0.005394
PD993   PD        0.451041    0.189814    0.324619     0.005394
PD994   PD        0.451702    0.223127    0.358880     0.005394
PD995   PD        0.485515    0.189419    0.357986     0.005394
PD996   PD        0.485080    0.220994    0.325318     0.005394
PD997   PD        0.518465    0.189781    0.326815     0.005394
PD998   PD        0.518913    0.221088    0.356758     0.005394
PD999   PD        0.552430    0.190287    0.356672     0.005394
PD1000   PD        0.556194    0.218416    0.321490     0.005394
PD1001   PD        0.585256    0.186664    0.326701     0.005394
PD1002   PD        0.582309    0.220241    0.355612     0.005394
AU1003   AU        0.619142    0.190316    0.358108     0.007504
PD1004   PD        0.615207    0.217825    0.322237     0.005394
AU1005   AU        0.653905    0.187273    0.322425     0.007504
AU1006   AU        0.651910    0.219361    0.357486     0.007504
AU1007   AU        0.685461    0.187241    0.357733     0.007504
AU1008   AU        0.685952    0.220363    0.322925     0.007504
AU1009   AU        0.719365    0.184202    0.329758     0.007504
AU1010   AU        0.718291    0.218426    0.358659     0.007504
AU1011   AU        0.749569    0.218813    0.324699     0.007504
AU1012   AU        0.123397    0.281701    0.355947     0.007504
AU1013   AU        0.154709    0.248514    0.355007     0.007504
AU1014   AU        0.159303    0.281355    0.326943     0.007504
AU1015   AU        0.190270    0.249513    0.326002     0.007504
PD1016   PD        0.194017    0.281991    0.357200     0.005394
PD1017   PD        0.223979    0.250455    0.358070     0.005394
PD1018   PD        0.226877    0.284681    0.323062     0.005394
PD1019   PD        0.256266    0.252704    0.321791     0.005394
PD1020   PD        0.258417    0.281777    0.355094     0.005394
PD1021   PD        0.291052    0.252839    0.358532     0.005394
PD1022   PD        0.292502    0.283265    0.325971     0.005394
PD1023   PD        0.325313    0.254173    0.325625     0.005394
PD1024   PD        0.323898    0.284721    0.358715     0.005394
PD1025   PD        0.356856    0.251744    0.358822     0.005394
PD1026   PD        0.358206    0.285450    0.325855     0.005394
PD1027   PD        0.390500    0.254053    0.325389     0.005394
PD1028   PD        0.388731    0.283244    0.358905     0.005394
PD1029   PD        0.421559    0.255097    0.358691     0.005394
PD1030   PD        0.422686    0.285902    0.324514     0.005394
PD1031   PD        0.452285    0.252058    0.326420     0.005394
PD1032   PD        0.454081    0.282141    0.358548     0.005394
PD1033   PD        0.487235    0.249981    0.357251     0.005394
PD1034   PD        0.485370    0.282967    0.323950     0.005394
PD1035   PD        0.521636    0.252070    0.325787     0.005394
PD1036   PD        0.519217    0.281837    0.354856     0.005394
PD1037   PD        0.552507    0.251869    0.357496     0.005394
PD1038   PD        0.551501    0.280708    0.323758     0.005394
PD1039   PD        0.586727    0.251765    0.324614     0.005394
PD1040   PD        0.585914    0.281408    0.355311     0.005394
PD1041   PD        0.617945    0.251898    0.356990     0.005394
PD1042   PD        0.620097    0.281484    0.324021     0.005394
PD1043   PD        0.649504    0.253812    0.323736     0.005394
PD1044   PD        0.652216    0.279814    0.357596     0.005394
AU1045   AU        0.685281    0.249600    0.358524     0.007504
PD1046   PD        0.681681    0.284044    0.324483     0.005394
AU1047   AU        0.718018    0.252423    0.324083     0.007504
AU1048   AU        0.715570    0.281858    0.357476     0.007504
AU1049   AU        0.749025    0.250961    0.357889     0.007504
AU1050   AU        0.748087    0.283563    0.326189     0.007504
AU1051   AU        0.782185    0.283818    0.358653     0.007504
AU1052   AU        0.087217    0.309315    0.349995     0.007504
AU1053   AU        0.091188    0.344319    0.324381     0.007504
AU1054   AU        0.123063    0.313256    0.322494     0.007504
AU1055   AU        0.122310    0.341883    0.357806     0.007504
AU1056   AU        0.156629    0.312722    0.355724     0.007504
AU1057   AU        0.161353    0.344640    0.324719     0.007504
PD1058   PD        0.193563    0.313202    0.326106     0.005394
PD1059   PD        0.193752    0.343123    0.358075     0.005394
PD1060   PD        0.227630    0.312716    0.358186     0.005394
PD1061   PD        0.225774    0.344523    0.324765     0.005394
PD1062   PD        0.260219    0.315364    0.322928     0.005394
PD1063   PD        0.260375    0.342621    0.356002     0.005394
PD1064   PD        0.291567    0.314114    0.359028     0.005394
PD1065   PD        0.293143    0.344435    0.325365     0.005394
PD1066   PD        0.322778    0.312091    0.324309     0.005394
PD1067   PD        0.324488    0.343799    0.359255     0.005394
PD1068   PD        0.356131    0.313672    0.355812     0.005394
PD1069   PD        0.355087    0.344656    0.327705     0.005394
PD1070   PD        0.389013    0.317536    0.325905     0.005394
PD1071   PD        0.388819    0.345148    0.357810     0.005394
PD1072   PD        0.421416    0.315176    0.358476     0.005394
PD1073   PD        0.422448    0.343377    0.323412     0.005394
PD1074   PD        0.455320    0.313435    0.325643     0.005394
PD1075   PD        0.453206    0.343976    0.357453     0.005394
PD1076   PD        0.486308    0.310975    0.357751     0.005394
PD1077   PD        0.485330    0.344378    0.325195     0.005394
PD1078   PD        0.519059    0.314616    0.325243     0.005394
PD1079   PD        0.519532    0.346832    0.357665     0.005394
PD1080   PD        0.551884    0.312380    0.355965     0.005394
PD1081   PD        0.551777    0.343278    0.322245     0.005394
PD1082   PD        0.584507    0.315340    0.323653     0.005394
PD1083   PD        0.583816    0.343200    0.356722     0.005394
PD1084   PD        0.617992    0.311987    0.356138     0.005394
PD1085   PD        0.616447    0.344648    0.325207     0.005394
PD1086   PD        0.649327    0.313827    0.324971     0.005394
PD1087   PD        0.651982    0.346732    0.356354     0.005394
PD1088   PD        0.682411    0.314383    0.358218     0.005394
PD1089   PD        0.682296    0.347129    0.324373     0.005394
AU1090   AU        0.717271    0.313711    0.325871     0.007504
PD1091   PD        0.715207    0.346277    0.357249     0.005394
AU1092   AU        0.746808    0.313374    0.359514     0.007504
AU1093   AU        0.747299    0.347722    0.324715     0.007504
AU1094   AU        0.781380    0.316586    0.324574     0.007504
AU1095   AU        0.780257    0.347105    0.359051     0.007504
PD1096   PD        0.903882    0.268549    0.362550     0.005394
AU1097   AU        0.817508    0.343696    0.325749     0.007504
AU1098   AU        0.087759    0.376859    0.358907     0.007504
AU1099   AU        0.088615    0.407341    0.324182     0.007504
AU1100   AU        0.124214    0.375173    0.324454     0.007504
AU1101   AU        0.125671    0.405274    0.358478     0.007504
AU1102   AU        0.159300    0.374930    0.358089     0.007504
AU1103   AU        0.161509    0.404000    0.325267     0.007504
PD1104   PD        0.195514    0.375655    0.325751     0.005394
PD1105   PD        0.193557    0.406420    0.357857     0.005394
PD1106   PD        0.228287    0.376226    0.358842     0.005394
PD1107   PD        0.226303    0.404708    0.323918     0.005394
PD1108   PD        0.259757    0.376053    0.326303     0.005394
PD1109   PD        0.259427    0.405663    0.356330     0.005394
PD1110   PD        0.291178    0.373995    0.358438     0.005394
PD1111   PD        0.292002    0.405329    0.324240     0.005394
PD1112   PD        0.322004    0.374963    0.323674     0.005394
PD1113   PD        0.322566    0.402482    0.358789     0.005394
PD1114   PD        0.355251    0.375855    0.357595     0.005394
PD1115   PD        0.358125    0.405629    0.321349     0.005394
PD1116   PD        0.388648    0.375192    0.323157     0.005394
PD1117   PD        0.388607    0.402612    0.357405     0.005394
PD1118   PD        0.422391    0.374898    0.360061     0.005394
PD1119   PD        0.424135    0.405408    0.324647     0.005394
PD1120   PD        0.454416    0.376049    0.328355     0.005394
PD1121   PD        0.454506    0.407456    0.356171     0.005394
PD1122   PD        0.487567    0.374535    0.359669     0.005394
PD1123   PD        0.487287    0.406259    0.322972     0.005394
PD1124   PD        0.521192    0.376130    0.324918     0.005394
PD1125   PD        0.518627    0.405076    0.355885     0.005394
PD1126   PD        0.552029    0.374448    0.356577     0.005394
PD1127   PD        0.554092    0.407758    0.325254     0.005394
PD1128   PD        0.582723    0.373625    0.324194     0.005394
PD1129   PD        0.584282    0.405791    0.356768     0.005394
PD1130   PD        0.615932    0.373465    0.358625     0.005394
PD1131   PD        0.615567    0.404699    0.325609     0.005394
PD1132   PD        0.647707    0.374924    0.323948     0.005394
PD1133   PD        0.648446    0.405843    0.358011     0.005394
PD1134   PD        0.684509    0.377297    0.356650     0.005394
PD1135   PD        0.681627    0.404584    0.328562     0.005394
PD1136   PD        0.714435    0.376989    0.323260     0.005394
PD1137   PD        0.713128    0.407567    0.360659     0.005394
AU1138   AU        0.746379    0.376010    0.357418     0.007504
AU1139   AU        0.747285    0.406300    0.323901     0.007504
AU1140   AU        0.782581    0.375598    0.322965     0.007504
AU1141   AU        0.784980    0.405662    0.354709     0.007504
AU1142   AU        0.818559    0.372964    0.359234     0.007504
AU1143   AU        0.817204    0.406274    0.323523     0.007504
AU1144   AU        0.092024    0.437242    0.358587     0.007504
AU1145   AU        0.085990    0.464265    0.324736     0.007504
AU1146   AU        0.126035    0.434865    0.323884     0.007504
AU1147   AU        0.125186    0.466976    0.354046     0.007504
PD1148   PD        0.159375    0.435029    0.357712     0.005394
AU1149   AU        0.161714    0.466990    0.325178     0.007504
PD1150   PD        0.194730    0.435752    0.324442     0.005394
PD1151   PD        0.195527    0.465346    0.356632     0.005394
PD1152   PD        0.226606    0.434983    0.357015     0.005394
PD1153   PD        0.227239    0.467251    0.324004     0.005394
PD1154   PD        0.258307    0.436422    0.324040     0.005394
PD1155   PD        0.258320    0.467118    0.357495     0.005394
PD1156   PD        0.291383    0.436124    0.357637     0.005394
PD1157   PD        0.290145    0.466594    0.325747     0.005394
PD1158   PD        0.323225    0.435316    0.325669     0.005394
PD1159   PD        0.325526    0.466477    0.357433     0.005394
PD1160   PD        0.356746    0.433610    0.356667     0.005394
PD1161   PD        0.358343    0.466133    0.325641     0.005394
PD1162   PD        0.390036    0.435527    0.326939     0.005394
PD1163   PD        0.389276    0.465242    0.357571     0.005394
PD1164   PD        0.422314    0.433827    0.356574     0.005394
PD1165   PD        0.423756    0.466798    0.327206     0.005394
PD1166   PD        0.457169    0.436178    0.323945     0.005394
PD1167   PD        0.453989    0.466393    0.358368     0.005394
PD1168   PD        0.487984    0.435843    0.358142     0.005394
PD1169   PD        0.488654    0.467318    0.325075     0.005394
PD1170   PD        0.519386    0.436084    0.327336     0.005394
PD1171   PD        0.522405    0.467649    0.356524     0.005394
PD1172   PD        0.550847    0.435676    0.358638     0.005394
PD1173   PD        0.554178    0.467771    0.324901     0.005394
PD1174   PD        0.583973    0.436733    0.323872     0.005394
PD1175   PD        0.586659    0.465259    0.357946     0.005394
PD1176   PD        0.617936    0.435899    0.359227     0.005394
PD1177   PD        0.616418    0.467334    0.326052     0.005394
PD1178   PD        0.653199    0.436712    0.322703     0.005394
PD1179   PD        0.651020    0.464497    0.356462     0.005394
PD1180   PD        0.679894    0.436132    0.359072     0.005394
PD1181   PD        0.683617    0.469329    0.323136     0.005394
PD1182   PD        0.713356    0.437331    0.327700     0.005394
PD1183   PD        0.712835    0.467100    0.358325     0.005394
PD1184   PD        0.749886    0.435088    0.358786     0.005394
AU1185   AU        0.748615    0.466415    0.324122     0.007504
AU1186   AU        0.782557    0.435510    0.323019     0.007504
AU1187   AU        0.783333    0.465491    0.355127     0.007504
AU1188   AU        0.849279    0.469785    0.283102     0.007504
AU1189   AU        0.815610    0.465079    0.322447     0.007504
AU1190   AU        0.092557    0.498522    0.355940     0.007504
AU1191   AU        0.091479    0.531357    0.321080     0.007504
AU1192   AU        0.124114    0.497135    0.323991     0.007504
AU1193   AU        0.129073    0.527915    0.356248     0.007504
AU1194   AU        0.159902    0.496397    0.356410     0.007504
AU1195   AU        0.161276    0.525840    0.322358     0.007504
PD1196   PD        0.195134    0.494714    0.325748     0.005394
PD1197   PD        0.192807    0.526764    0.355663     0.005394
PD1198   PD        0.227354    0.497467    0.356888     0.005394
PD1199   PD        0.227552    0.527755    0.325050     0.005394
PD1200   PD        0.259612    0.498151    0.327321     0.005394
PD1201   PD        0.258309    0.529745    0.356887     0.005394
PD1202   PD        0.292078    0.497521    0.357471     0.005394
PD1203   PD        0.294201    0.526984    0.323483     0.005394
PD1204   PD        0.326422    0.495771    0.324391     0.005394
PD1205   PD        0.325976    0.527404    0.358025     0.005394
PD1206   PD        0.357232    0.495537    0.356734     0.005394
PD1207   PD        0.358796    0.527795    0.323690     0.005394
PD1208   PD        0.391846    0.496580    0.327860     0.005394
PD1209   PD        0.388164    0.528940    0.357774     0.005394
PD1210   PD        0.421531    0.498395    0.358033     0.005394
PD1211   PD        0.424459    0.528211    0.325916     0.005394
PD1212   PD        0.455689    0.495808    0.325039     0.005394
PD1213   PD        0.455313    0.529375    0.357322     0.005394
PD1214   PD        0.486638    0.497900    0.357934     0.005394
PD1215   PD        0.488599    0.527739    0.326356     0.005394
PD1216   PD        0.519457    0.497783    0.323655     0.005394
PD1217   PD        0.519928    0.528146    0.360213     0.005394
PD1218   PD        0.552718    0.498237    0.357724     0.005394
PD1219   PD        0.554411    0.525592    0.321529     0.005394
PD1220   PD        0.586283    0.498150    0.323606     0.005394
PD1221   PD        0.585276    0.528061    0.355798     0.005394
PD1222   PD        0.617378    0.498624    0.358272     0.005394
PD1223   PD        0.618335    0.529035    0.323926     0.005394
PD1224   PD        0.646978    0.496128    0.325641     0.005394
PD1225   PD        0.649578    0.528331    0.356528     0.005394
PD1226   PD        0.683533    0.498395    0.357191     0.005394
PD1227   PD        0.682990    0.526059    0.325218     0.005394
PD1228   PD        0.715295    0.497473    0.323477     0.005394
PD1229   PD        0.715063    0.528382    0.358478     0.005394
AU1230   AU        0.747424    0.495453    0.357776     0.007504
AU1231   AU        0.748599    0.526392    0.323984     0.007504
AU1232   AU        0.782725    0.497119    0.321948     0.007504
AU1233   AU        0.784133    0.527814    0.354513     0.007504
PD1234   PD        0.877178    0.532490    0.322045     0.005394
AU1235   AU        0.818240    0.533208    0.321528     0.007504
AU1236   AU        0.095561    0.559087    0.358451     0.007504
AU1237   AU        0.127472    0.557439    0.324050     0.007504
AU1238   AU        0.126362    0.589373    0.358028     0.007504
AU1239   AU        0.160284    0.557385    0.355103     0.007504
AU1240   AU        0.160186    0.589810    0.323064     0.007504
AU1241   AU        0.194209    0.557165    0.324008     0.007504
AU1242   AU        0.192241    0.587355    0.356372     0.007504
PD1243   PD        0.228050    0.560656    0.356491     0.005394
PD1244   PD        0.227719    0.587296    0.323713     0.005394
PD1245   PD        0.263211    0.559000    0.324082     0.005394
PD1246   PD        0.261045    0.587472    0.358330     0.005394
PD1247   PD        0.292302    0.559345    0.358109     0.005394
PD1248   PD        0.292697    0.587792    0.323584     0.005394
PD1249   PD        0.324431    0.558176    0.324813     0.005394
PD1250   PD        0.323441    0.590233    0.358859     0.005394
PD1251   PD        0.358795    0.558087    0.357068     0.005394
PD1252   PD        0.359559    0.589715    0.323927     0.005394
PD1253   PD        0.389908    0.559315    0.324861     0.005394
PD1254   PD        0.390779    0.588931    0.357573     0.005394
PD1255   PD        0.422351    0.558086    0.357260     0.005394
PD1256   PD        0.424200    0.588866    0.324967     0.005394
PD1257   PD        0.454835    0.558864    0.325859     0.005394
PD1258   PD        0.455072    0.587982    0.360494     0.005394
PD1259   PD        0.487713    0.558344    0.358558     0.005394
PD1260   PD        0.485831    0.588052    0.326550     0.005394
PD1261   PD        0.519053    0.556349    0.325953     0.005394
PD1262   PD        0.522131    0.588093    0.360491     0.005394
PD1263   PD        0.552418    0.557059    0.355897     0.005394
PD1264   PD        0.552932    0.589349    0.328734     0.005394
PD1265   PD        0.584227    0.560019    0.324173     0.005394
PD1266   PD        0.586695    0.587831    0.357915     0.005394
PD1267   PD        0.618860    0.558223    0.357468     0.005394
PD1268   PD        0.619073    0.587968    0.325081     0.005394
PD1269   PD        0.653169    0.560819    0.325637     0.005394
PD1270   PD        0.650821    0.589990    0.356976     0.005394
PD1271   PD        0.681855    0.558789    0.358406     0.005394
PD1272   PD        0.681310    0.587011    0.323682     0.005394
PD1273   PD        0.715463    0.556688    0.324877     0.005394
AU1274   AU        0.714934    0.588437    0.354767     0.007504
AU1275   AU        0.749170    0.559607    0.354366     0.007504
AU1276   AU        0.749757    0.591605    0.323208     0.007504
AU1277   AU        0.782801    0.559324    0.323583     0.007504
AU1278   AU        0.782757    0.591517    0.355721     0.007504
AU1279   AU        0.819661    0.561700    0.354463     0.007504
AU1280   AU        0.161262    0.619537    0.357631     0.007504
AU1281   AU        0.159423    0.649927    0.325822     0.007504
AU1282   AU        0.194277    0.618031    0.324663     0.007504
AU1283   AU        0.194105    0.650013    0.356113     0.007504
AU1284   AU        0.227318    0.617465    0.356703     0.007504
AU1285   AU        0.226481    0.650120    0.321113     0.007504
PD1286   PD        0.260631    0.618014    0.324877     0.005394
AU1287   AU        0.260129    0.649402    0.354158     0.007504
PD1288   PD        0.293328    0.619170    0.354344     0.005394
PD1289   PD        0.293058    0.650262    0.322947     0.005394
PD1290   PD        0.325266    0.619791    0.323879     0.005394
PD1291   PD        0.323914    0.650856    0.355757     0.005394
PD1292   PD        0.355232    0.621525    0.356599     0.005394
PD1293   PD        0.359239    0.650952    0.322968     0.005394
PD1294   PD        0.391199    0.620201    0.324345     0.005394
PD1295   PD        0.390503    0.652350    0.358126     0.005394
PD1296   PD        0.421708    0.620892    0.358760     0.005394
PD1297   PD        0.421955    0.648375    0.324591     0.005394
PD1298   PD        0.453556    0.621880    0.327135     0.005394
PD1299   PD        0.454696    0.651231    0.357473     0.005394
PD1300   PD        0.488229    0.618676    0.358580     0.005394
PD1301   PD        0.488680    0.649517    0.326021     0.005394
PD1302   PD        0.518753    0.619139    0.326491     0.005394
PD1303   PD        0.522203    0.649111    0.358359     0.005394
PD1304   PD        0.552720    0.620308    0.359458     0.005394
PD1305   PD        0.551516    0.648714    0.325034     0.005394
PD1306   PD        0.587198    0.618383    0.324126     0.005394
PD1307   PD        0.585257    0.649200    0.357936     0.005394
PD1308   PD        0.616905    0.620327    0.357099     0.005394
PD1309   PD        0.617750    0.648475    0.325663     0.005394
PD1310   PD        0.649396    0.618615    0.323739     0.005394
AU1311   AU        0.650988    0.649916    0.356102     0.007504
AU1312   AU        0.682512    0.620422    0.358086     0.007504
AU1313   AU        0.685329    0.651760    0.326257     0.007504
AU1314   AU        0.717438    0.621603    0.324685     0.007504
AU1315   AU        0.716239    0.652090    0.358669     0.007504
AU1316   AU        0.749304    0.623525    0.356939     0.007504
AU1317   AU        0.751522    0.657513    0.326050     0.007504
AU1318   AU        0.189014    0.682116    0.322094     0.007504
AU1319   AU        0.226963    0.680339    0.356325     0.007504
AU1320   AU        0.220782    0.713968    0.323591     0.007504
AU1321   AU        0.257949    0.683061    0.322152     0.007504
AU1322   AU        0.259498    0.712669    0.357116     0.007504
AU1323   AU        0.292077    0.680562    0.355734     0.007504
AU1324   AU        0.292232    0.714118    0.322608     0.007504
AU1325   AU        0.324556    0.681222    0.322417     0.007504
AU1326   AU        0.322342    0.714500    0.358055     0.007504
PD1327   PD        0.355319    0.682436    0.358777     0.005394
AU1328   AU        0.356349    0.712269    0.325561     0.007504
PD1329   PD        0.392028    0.681623    0.323474     0.005394
AU1330   AU        0.387421    0.712373    0.357845     0.007504
PD1331   PD        0.421664    0.681253    0.358281     0.005394
AU1332   AU        0.421057    0.712573    0.324681     0.007504
PD1333   PD        0.455077    0.681230    0.326010     0.005394
AU1334   AU        0.454102    0.710356    0.357146     0.007504
PD1335   PD        0.488757    0.679531    0.357238     0.005394
AU1336   AU        0.487868    0.712341    0.325790     0.007504
PD1337   PD        0.521194    0.680394    0.324885     0.005394
AU1338   AU        0.519981    0.712204    0.357895     0.007504
PD1339   PD        0.551359    0.681602    0.358541     0.005394
AU1340   AU        0.553336    0.712553    0.324835     0.007504
AU1341   AU        0.583775    0.680446    0.325416     0.007504
AU1342   AU        0.583893    0.714450    0.356780     0.007504
AU1343   AU        0.617800    0.681186    0.358048     0.007504
AU1344   AU        0.616322    0.712131    0.324804     0.007504
AU1345   AU        0.650036    0.683216    0.323975     0.007504
AU1346   AU        0.652185    0.715063    0.358470     0.007504
AU1347   AU        0.684480    0.684249    0.359105     0.007504
AU1348   AU        0.683447    0.719355    0.321266     0.007504
AU1349   AU        0.716749    0.686948    0.326664     0.007504
AU1350   AU        0.290449    0.745904    0.356689     0.007504
AU1351   AU        0.323989    0.745100    0.324365     0.007504
AU1352   AU        0.321269    0.776405    0.356936     0.007504
AU1353   AU        0.354819    0.745254    0.355897     0.007504
AU1354   AU        0.356889    0.774198    0.322231     0.007504
AU1355   AU        0.391326    0.744999    0.324057     0.007504
AU1356   AU        0.387033    0.774955    0.358302     0.007504
AU1357   AU        0.422371    0.742545    0.357441     0.007504
AU1358   AU        0.422673    0.774985    0.323027     0.007504
AU1359   AU        0.455298    0.744873    0.325509     0.007504
AU1360   AU        0.454908    0.778652    0.356232     0.007504
AU1361   AU        0.487749    0.743836    0.357276     0.007504
AU1362   AU        0.486986    0.777373    0.324262     0.007504
AU1363   AU        0.520400    0.743909    0.322399     0.007504
AU1364   AU        0.519203    0.776923    0.354116     0.007504
AU1365   AU        0.552862    0.745839    0.358978     0.007504
AU1366   AU        0.550739    0.776309    0.322694     0.007504
AU1367   AU        0.585210    0.746790    0.322156     0.007504
AU1368   AU        0.583249    0.776777    0.358387     0.007504
AU1369   AU        0.618514    0.747372    0.355865     0.007504
AU1370   AU        0.289533    0.089979    0.392556     0.007504
AU1371   AU        0.322752    0.093049    0.423866     0.007504
AU1372   AU        0.355904    0.093235    0.389422     0.007504
AU1373   AU        0.385268    0.092004    0.422241     0.007504
PD1374   PD        0.458825    0.013016    0.449928     0.005394
AU1375   AU        0.418118    0.090830    0.390227     0.007504
AU1376   AU        0.455227    0.061737    0.390461     0.007504
AU1377   AU        0.453342    0.093052    0.422859     0.007504
AU1378   AU        0.490302    0.058255    0.423762     0.007504
AU1379   AU        0.486676    0.091898    0.390827     0.007504
AU1380   AU        0.522323    0.093531    0.420943     0.007504
AU1381   AU        0.551457    0.094255    0.388362     0.007504
AU1382   AU        0.581339    0.091049    0.426353     0.007504
AU1383   AU        0.621265    0.093165    0.390629     0.007504
AU1384   AU        0.185675    0.155741    0.420486     0.007504
AU1385   AU        0.218117    0.126033    0.423366     0.007504
AU1386   AU        0.224487    0.154111    0.390824     0.007504
AU1387   AU        0.256053    0.123588    0.389081     0.007504
AU1388   AU        0.258441    0.154986    0.422730     0.007504
AU1389   AU        0.291167    0.124067    0.419877     0.007504
AU1390   AU        0.291606    0.156890    0.389603     0.007504
AU1391   AU        0.321861    0.124259    0.389266     0.007504
PD1392   PD        0.321479    0.156943    0.422579     0.005394
AU1393   AU        0.353676    0.123389    0.424129     0.007504
PD1394   PD        0.352587    0.155948    0.394240     0.005394
AU1395   AU        0.387716    0.126435    0.388297     0.007504
PD1396   PD        0.386824    0.158603    0.422160     0.005394
AU1397   AU        0.417893    0.124471    0.421034     0.007504
PD1398   PD        0.420878    0.157105    0.391683     0.005394
AU1399   AU        0.450832    0.125190    0.390041     0.007504
PD1400   PD        0.452281    0.160087    0.421237     0.005394
AU1401   AU        0.485117    0.124902    0.421718     0.007504
PD1402   PD        0.488564    0.158564    0.387879     0.005394
AU1403   AU        0.517880    0.123809    0.388589     0.007504
PD1404   PD        0.519805    0.161806    0.421097     0.005394
AU1405   AU        0.552351    0.125265    0.421344     0.007504
PD1406   PD        0.552895    0.159891    0.384845     0.005394
AU1407   AU        0.586885    0.122196    0.390254     0.007504
PD1408   PD        0.582833    0.156525    0.420305     0.005394
AU1409   AU        0.619228    0.124028    0.421145     0.007504
AU1410   AU        0.618324    0.156464    0.389236     0.007504
AU1411   AU        0.654669    0.123958    0.390128     0.007504
AU1412   AU        0.652457    0.155778    0.422443     0.007504
AU1413   AU        0.714817    0.119080    0.455162     0.007504
AU1414   AU        0.688688    0.154178    0.388548     0.007504
AU1415   AU        0.721986    0.153024    0.422843     0.007504
AU1416   AU        0.118714    0.221118    0.423874     0.007504
AU1417   AU        0.155771    0.188994    0.422858     0.007504
AU1418   AU        0.153613    0.217493    0.388318     0.007504
AU1419   AU        0.189284    0.186645    0.388997     0.007504
AU1420   AU        0.189209    0.218530    0.421605     0.007504
AU1421   AU        0.221190    0.187330    0.423539     0.007504
AU1422   AU        0.224744    0.218428    0.388067     0.007504
AU1423   AU        0.260562    0.190013    0.392371     0.007504
PD1424   PD        0.256551    0.222547    0.421946     0.005394
PD1425   PD        0.291703    0.189488    0.424595     0.005394
PD1426   PD        0.294269    0.222403    0.392271     0.005394
PD1427   PD        0.327456    0.192715    0.391179     0.005394
PD1428   PD        0.326175    0.222712    0.424736     0.005394
PD1429   PD        0.356192    0.189120    0.424722     0.005394
PD1430   PD        0.355977    0.222560    0.389631     0.005394
PD1431   PD        0.386522    0.188281    0.392121     0.005394
PD1432   PD        0.388426    0.221972    0.424396     0.005394
PD1433   PD        0.418893    0.192824    0.422960     0.005394
PD1434   PD        0.419027    0.221843    0.390762     0.005394
PD1435   PD        0.452444    0.191932    0.391513     0.005394
PD1436   PD        0.453029    0.222325    0.423268     0.005394
PD1437   PD        0.483965    0.192347    0.422661     0.005394
PD1438   PD        0.486261    0.221885    0.390743     0.005394
PD1439   PD        0.519098    0.191760    0.391307     0.005394
PD1440   PD        0.519236    0.222006    0.422465     0.005394
PD1441   PD        0.552638    0.190045    0.420781     0.005394
PD1442   PD        0.551336    0.221698    0.389538     0.005394
PD1443   PD        0.585506    0.189333    0.388484     0.005394
PD1444   PD        0.583041    0.221978    0.423480     0.005394
PD1445   PD        0.616798    0.190351    0.424270     0.005394
PD1446   PD        0.619587    0.219183    0.390019     0.005394
AU1447   AU        0.652486    0.187305    0.389624     0.007504
PD1448   PD        0.650576    0.221477    0.422263     0.005394
AU1449   AU        0.684375    0.186328    0.424097     0.007504
AU1450   AU        0.684690    0.220627    0.391518     0.007504
AU1451   AU        0.720667    0.188442    0.391696     0.007504
AU1452   AU        0.719736    0.221128    0.422148     0.007504
AU1453   AU        0.754087    0.184394    0.422549     0.007504
AU1454   AU        0.753280    0.220155    0.391083     0.007504
AU1455   AU        0.785560    0.220022    0.423532     0.007504
AU1456   AU        0.086927    0.280068    0.387171     0.007504
AU1457   AU        0.121949    0.249288    0.389832     0.007504
AU1458   AU        0.121195    0.280649    0.422335     0.007504
AU1459   AU        0.158225    0.249617    0.422133     0.007504
AU1460   AU        0.157740    0.280415    0.388344     0.007504
AU1461   AU        0.191013    0.250072    0.390087     0.007504
PD1462   PD        0.194135    0.280019    0.424216     0.005394
PD1463   PD        0.222586    0.248676    0.421339     0.005394
PD1464   PD        0.226220    0.281277    0.389448     0.005394
PD1465   PD        0.259125    0.254760    0.390988     0.005394
PD1466   PD        0.261885    0.280343    0.423316     0.005394
PD1467   PD        0.288954    0.253297    0.423300     0.005394
PD1468   PD        0.292976    0.284101    0.391931     0.005394
PD1469   PD        0.324771    0.253357    0.390139     0.005394
PD1470   PD        0.324924    0.283860    0.422978     0.005394
PD1471   PD        0.357415    0.253211    0.423325     0.005394
PD1472   PD        0.356729    0.283287    0.390929     0.005394
PD1473   PD        0.388411    0.250806    0.387447     0.005394
PD1474   PD        0.390975    0.283130    0.421816     0.005394
PD1475   PD        0.422078    0.254112    0.421041     0.005394
PD1476   PD        0.422267    0.284744    0.389570     0.005394
PD1477   PD        0.455186    0.252801    0.390734     0.005394
PD1478   PD        0.454881    0.284052    0.423311     0.005394
PD1479   PD        0.485267    0.252833    0.421748     0.005394
PD1480   PD        0.487734    0.283505    0.390542     0.005394
PD1481   PD        0.517470    0.250237    0.392384     0.005394
PD1482   PD        0.520458    0.282125    0.427450     0.005394
PD1483   PD        0.552763    0.254424    0.420662     0.005394
PD1484   PD        0.551447    0.281285    0.392903     0.005394
PD1485   PD        0.584230    0.254154    0.388792     0.005394
PD1486   PD        0.588717    0.284750    0.421911     0.005394
PD1487   PD        0.617995    0.253731    0.422332     0.005394
PD1488   PD        0.617663    0.283896    0.388737     0.005394
PD1489   PD        0.650779    0.252786    0.389078     0.005394
PD1490   PD        0.650352    0.282583    0.422394     0.005394
PD1491   PD        0.685580    0.252823    0.424621     0.005394
PD1492   PD        0.684118    0.284384    0.388913     0.005394
AU1493   AU        0.718126    0.252603    0.390435     0.007504
PD1494   PD        0.716360    0.281821    0.426362     0.005394
AU1495   AU        0.750971    0.250273    0.422038     0.007504
AU1496   AU        0.749190    0.283999    0.392032     0.007504
AU1497   AU        0.786650    0.250475    0.390623     0.007504
AU1498   AU        0.783841    0.284009    0.421863     0.007504
PD1499   PD        0.879258    0.225573    0.394333     0.005394
AU1500   AU        0.087692    0.310969    0.420891     0.007504
AU1501   AU        0.087204    0.342122    0.388734     0.007504
AU1502   AU        0.121374    0.310488    0.387503     0.007504
AU1503   AU        0.123532    0.339730    0.421336     0.007504
AU1504   AU        0.157499    0.308544    0.421575     0.007504
AU1505   AU        0.160228    0.343506    0.388485     0.007504
PD1506   PD        0.191990    0.311833    0.389322     0.005394
PD1507   PD        0.194660    0.344161    0.420625     0.005394
PD1508   PD        0.226765    0.313360    0.422091     0.005394
PD1509   PD        0.227558    0.344945    0.388034     0.005394
PD1510   PD        0.256888    0.312526    0.389812     0.005394
PD1511   PD        0.256474    0.343374    0.421094     0.005394
PD1512   PD        0.293294    0.314374    0.422793     0.005394
PD1513   PD        0.289573    0.342082    0.390709     0.005394
PD1514   PD        0.323446    0.315358    0.390118     0.005394
PD1515   PD        0.321609    0.344598    0.423007     0.005394
PD1516   PD        0.355993    0.312624    0.423375     0.005394
PD1517   PD        0.355415    0.343629    0.390012     0.005394
PD1518   PD        0.387228    0.314714    0.391395     0.005394
PD1519   PD        0.389929    0.343693    0.425027     0.005394
PD1520   PD        0.419755    0.312784    0.422660     0.005394
PD1521   PD        0.419414    0.342182    0.391533     0.005394
PD1522   PD        0.455481    0.314381    0.390797     0.005394
PD1523   PD        0.452712    0.342999    0.424529     0.005394
PD1524   PD        0.488320    0.311192    0.422842     0.005394
PD1525   PD        0.487321    0.343073    0.391560     0.005394
PD1526   PD        0.522199    0.311642    0.389083     0.005394
PD1527   PD        0.519083    0.343653    0.422372     0.005394
PD1528   PD        0.551421    0.314393    0.423141     0.005394
PD1529   PD        0.551504    0.342896    0.388978     0.005394
PD1530   PD        0.583883    0.312482    0.389540     0.005394
PD1531   PD        0.583641    0.343378    0.424122     0.005394
PD1532   PD        0.615943    0.314520    0.426155     0.005394
PD1533   PD        0.614662    0.344067    0.390107     0.005394
PD1534   PD        0.648765    0.312923    0.391113     0.005394
PD1535   PD        0.648937    0.346299    0.421852     0.005394
PD1536   PD        0.681991    0.314383    0.421009     0.005394
PD1537   PD        0.680972    0.345237    0.391443     0.005394
PD1538   PD        0.713545    0.313611    0.391277     0.005394
PD1539   PD        0.714058    0.342991    0.425640     0.005394
AU1540   AU        0.747419    0.312567    0.426225     0.007504
PD1541   PD        0.746678    0.345394    0.391463     0.005394
AU1542   AU        0.779295    0.316119    0.391196     0.007504
AU1543   AU        0.782735    0.344545    0.425586     0.007504
AU1544   AU        0.817742    0.315278    0.423995     0.007504
AU1545   AU        0.856130    0.379465    0.393452     0.007504
AU1546   AU        0.053324    0.404065    0.423657     0.007504
AU1547   AU        0.089562    0.374793    0.422284     0.007504
AU1548   AU        0.090816    0.405692    0.391310     0.007504
AU1549   AU        0.125432    0.372113    0.389028     0.007504
AU1550   AU        0.124965    0.405570    0.422574     0.007504
PD1551   PD        0.159596    0.374830    0.419963     0.005394
PD1552   PD        0.160748    0.402719    0.390609     0.005394
PD1553   PD        0.194962    0.373792    0.387758     0.005394
PD1554   PD        0.193019    0.405542    0.421915     0.005394
PD1555   PD        0.226935    0.374690    0.420779     0.005394
PD1556   PD        0.227090    0.405326    0.387477     0.005394
PD1557   PD        0.259092    0.374792    0.389674     0.005394
PD1558   PD        0.258394    0.402981    0.420591     0.005394
PD1559   PD        0.290845    0.374384    0.422604     0.005394
PD1560   PD        0.290303    0.403937    0.390677     0.005394
PD1561   PD        0.323981    0.374144    0.390410     0.005394
PD1562   PD        0.322861    0.404591    0.424739     0.005394
PD1563   PD        0.357804    0.375079    0.424557     0.005394
PD1564   PD        0.354468    0.404858    0.391455     0.005394
PD1565   PD        0.389361    0.375958    0.391066     0.005394
PD1566   PD        0.390327    0.404674    0.422236     0.005394
PD1567   PD        0.421483    0.375538    0.423076     0.005394
PD1568   PD        0.421882    0.406846    0.389472     0.005394
PD1569   PD        0.450728    0.375144    0.392258     0.005394
PD1570   PD        0.453250    0.405704    0.422731     0.005394
PD1571   PD        0.485868    0.373257    0.422726     0.005394
PD1572   PD        0.484772    0.405074    0.389555     0.005394
PD1573   PD        0.519176    0.374610    0.391236     0.005394
PD1574   PD        0.519675    0.406883    0.423439     0.005394
PD1575   PD        0.551525    0.374975    0.423340     0.005394
PD1576   PD        0.551096    0.404459    0.388834     0.005394
PD1577   PD        0.581350    0.375453    0.390819     0.005394
PD1578   PD        0.583286    0.405282    0.425333     0.005394
PD1579   PD        0.614891    0.375972    0.422503     0.005394
PD1580   PD        0.615873    0.407166    0.393520     0.005394
PD1581   PD        0.650419    0.374817    0.388668     0.005394
PD1582   PD        0.648050    0.407449    0.423756     0.005394
PD1583   PD        0.682800    0.375286    0.425115     0.005394
PD1584   PD        0.679893    0.405938    0.390460     0.005394
PD1585   PD        0.713800    0.373280    0.391790     0.005394
PD1586   PD        0.711056    0.402907    0.422664     0.005394
PD1587   PD        0.748422    0.375091    0.424867     0.005394
PD1588   PD        0.746108    0.405982    0.391157     0.005394
AU1589   AU        0.779469    0.374468    0.392429     0.007504
AU1590   AU        0.780462    0.405246    0.426194     0.007504
AU1591   AU        0.817081    0.377679    0.420938     0.007504
AU1592   AU        0.815846    0.405828    0.390690     0.007504
AU1593   AU        0.888409    0.406235    0.458441     0.007504
AU1594   AU        0.058033    0.435930    0.388088     0.007504
AU1595   AU        0.056759    0.467107    0.419322     0.007504
AU1596   AU        0.090026    0.438324    0.421171     0.007504
AU1597   AU        0.095897    0.467889    0.388729     0.007504
AU1598   AU        0.126755    0.434432    0.388434     0.007504
AU1599   AU        0.127751    0.466604    0.421653     0.007504
PD1600   PD        0.160014    0.435960    0.421594     0.005394
PD1601   PD        0.162539    0.467434    0.390196     0.005394
PD1602   PD        0.194385    0.433762    0.390347     0.005394
PD1603   PD        0.192637    0.467309    0.421984     0.005394
PD1604   PD        0.226085    0.436277    0.421965     0.005394
PD1605   PD        0.225238    0.465413    0.390742     0.005394
PD1606   PD        0.259048    0.434868    0.389594     0.005394
PD1607   PD        0.257618    0.464160    0.421957     0.005394
PD1608   PD        0.293026    0.436545    0.422734     0.005394
PD1609   PD        0.290339    0.466774    0.388714     0.005394
PD1610   PD        0.324488    0.437017    0.389648     0.005394
PD1611   PD        0.323247    0.466751    0.422655     0.005394
PD1612   PD        0.353135    0.433933    0.422434     0.005394
PD1613   PD        0.356238    0.466700    0.389788     0.005394
PD1614   PD        0.388948    0.433565    0.391499     0.005394
PD1615   PD        0.386544    0.467501    0.420115     0.005394
PD1616   PD        0.423009    0.436971    0.422715     0.005394
PD1617   PD        0.421457    0.465931    0.390204     0.005394
PD1618   PD        0.458313    0.434495    0.390684     0.005394
PD1619   PD        0.455407    0.466707    0.420777     0.005394
PD1620   PD        0.487017    0.435860    0.420951     0.005394
PD1621   PD        0.488664    0.466482    0.388600     0.005394
PD1622   PD        0.519862    0.435098    0.388678     0.005394
PD1623   PD        0.519805    0.465837    0.421830     0.005394
PD1624   PD        0.551342    0.437215    0.423456     0.005394
PD1625   PD        0.552028    0.468138    0.391278     0.005394
PD1626   PD        0.584757    0.434979    0.391136     0.005394
PD1627   PD        0.585422    0.466931    0.422895     0.005394
PD1628   PD        0.617828    0.436651    0.423382     0.005394
PD1629   PD        0.616124    0.469602    0.390761     0.005394
PD1630   PD        0.647623    0.438260    0.392760     0.005394
PD1631   PD        0.649340    0.468271    0.423571     0.005394
PD1632   PD        0.682235    0.437577    0.424373     0.005394
PD1633   PD        0.682502    0.467280    0.392947     0.005394
PD1634   PD        0.713230    0.436629    0.391976     0.005394
PD1635   PD        0.715427    0.465878    0.422425     0.005394
PD1636   PD        0.746447    0.436032    0.420958     0.005394
PD1637   PD        0.746718    0.466729    0.390778     0.005394
AU1638   AU        0.780771    0.434322    0.389620     0.007504
AU1639   AU        0.781041    0.466963    0.423222     0.007504
AU1640   AU        0.814439    0.436020    0.422862     0.007504
AU1641   AU        0.816175    0.464678    0.386938     0.007504
PD1642   PD        0.848786    0.436397    0.387562     0.005394
AU1643   AU        0.848430    0.467909    0.420560     0.007504
AU1644   AU        0.092588    0.497475    0.421781     0.007504
AU1645   AU        0.093624    0.528714    0.389638     0.007504
AU1646   AU        0.128032    0.498465    0.389185     0.007504
AU1647   AU        0.127452    0.528127    0.420888     0.007504
PD1648   PD        0.160863    0.496275    0.422062     0.005394
AU1649   AU        0.161515    0.527679    0.388764     0.007504
PD1650   PD        0.193724    0.498539    0.388453     0.005394
PD1651   PD        0.192026    0.527546    0.421056     0.005394
PD1652   PD        0.223201    0.495530    0.422990     0.005394
PD1653   PD        0.224327    0.526838    0.387507     0.005394
PD1654   PD        0.256229    0.498682    0.390598     0.005394
PD1655   PD        0.256895    0.526204    0.424746     0.005394
PD1656   PD        0.288084    0.495364    0.422484     0.005394
PD1657   PD        0.291007    0.524216    0.390321     0.005394
PD1658   PD        0.322805    0.495488    0.390246     0.005394
PD1659   PD        0.323687    0.527453    0.421895     0.005394
PD1660   PD        0.352890    0.496858    0.419924     0.005394
PD1661   PD        0.358524    0.526146    0.390916     0.005394
PD1662   PD        0.391764    0.497573    0.391010     0.005394
PD1663   PD        0.386722    0.528367    0.423278     0.005394
PD1664   PD        0.423048    0.496329    0.421629     0.005394
PD1665   PD        0.421725    0.530000    0.387996     0.005394
PD1666   PD        0.451933    0.497179    0.388528     0.005394
PD1667   PD        0.454985    0.529559    0.422390     0.005394
PD1668   PD        0.487321    0.497359    0.419878     0.005394
PD1669   PD        0.487312    0.527551    0.389350     0.005394
PD1670   PD        0.517922    0.497418    0.390521     0.005394
PD1671   PD        0.517532    0.527659    0.425100     0.005394
PD1672   PD        0.554133    0.496642    0.424243     0.005394
PD1673   PD        0.552694    0.528415    0.389595     0.005394
PD1674   PD        0.583610    0.498904    0.389900     0.005394
PD1675   PD        0.583466    0.527533    0.423242     0.005394
PD1676   PD        0.615765    0.499642    0.423101     0.005394
PD1677   PD        0.616066    0.528314    0.389523     0.005394
PD1678   PD        0.650157    0.498544    0.390156     0.005394
PD1679   PD        0.650244    0.529196    0.421533     0.005394
PD1680   PD        0.681297    0.498217    0.424515     0.005394
PD1681   PD        0.681750    0.529691    0.389879     0.005394
PD1682   PD        0.716947    0.496415    0.389798     0.005394
PD1683   PD        0.715084    0.529276    0.420476     0.005394
PD1684   PD        0.747375    0.498527    0.423425     0.005394
PD1685   PD        0.749412    0.526497    0.389450     0.005394
AU1686   AU        0.782035    0.496890    0.387340     0.007504
AU1687   AU        0.782217    0.526814    0.420737     0.007504
AU1688   AU        0.814850    0.498282    0.421863     0.007504
AU1689   AU        0.815191    0.528164    0.386889     0.007504
AU1690   AU        0.091393    0.559532    0.424893     0.007504
AU1691   AU        0.090190    0.590484    0.389186     0.007504
AU1692   AU        0.128768    0.560117    0.389562     0.007504
AU1693   AU        0.123781    0.590155    0.423440     0.007504
AU1694   AU        0.161476    0.560556    0.420965     0.007504
AU1695   AU        0.159212    0.590119    0.390719     0.007504
PD1696   PD        0.194026    0.558724    0.389205     0.005394
AU1697   AU        0.195703    0.589706    0.420684     0.007504
PD1698   PD        0.227847    0.557121    0.422048     0.005394
PD1699   PD        0.228176    0.588641    0.390374     0.005394
PD1700   PD        0.259501    0.556226    0.388431     0.005394
PD1701   PD        0.259853    0.590479    0.421442     0.005394
PD1702   PD        0.291346    0.559323    0.420102     0.005394
PD1703   PD        0.290695    0.591431    0.389369     0.005394
PD1704   PD        0.325342    0.559226    0.388201     0.005394
PD1705   PD        0.321514    0.589055    0.422607     0.005394
PD1706   PD        0.354991    0.558259    0.424218     0.005394
PD1707   PD        0.356808    0.587631    0.387599     0.005394
PD1708   PD        0.387905    0.558326    0.391217     0.005394
PD1709   PD        0.388030    0.587638    0.422914     0.005394
PD1710   PD        0.419576    0.559021    0.422215     0.005394
PD1711   PD        0.421133    0.588379    0.390761     0.005394
PD1712   PD        0.454308    0.559036    0.390973     0.005394
PD1713   PD        0.453376    0.589249    0.421872     0.005394
PD1714   PD        0.485684    0.557024    0.423151     0.005394
PD1715   PD        0.488487    0.590550    0.389434     0.005394
PD1716   PD        0.518941    0.558320    0.390138     0.005394
PD1717   PD        0.519800    0.587924    0.423046     0.005394
PD1718   PD        0.551630    0.559307    0.425748     0.005394
PD1719   PD        0.554387    0.589090    0.390375     0.005394
PD1720   PD        0.585831    0.560060    0.391603     0.005394
PD1721   PD        0.586646    0.588118    0.422734     0.005394
PD1722   PD        0.616967    0.557644    0.423841     0.005394
PD1723   PD        0.618130    0.588539    0.388410     0.005394
PD1724   PD        0.648120    0.558970    0.390501     0.005394
PD1725   PD        0.649176    0.589227    0.421968     0.005394
PD1726   PD        0.682546    0.560962    0.423433     0.005394
PD1727   PD        0.682710    0.589599    0.389594     0.005394
PD1728   PD        0.717194    0.559132    0.390033     0.005394
PD1729   PD        0.716033    0.588101    0.424163     0.005394
AU1730   AU        0.748404    0.557610    0.422132     0.007504
AU1731   AU        0.747950    0.591024    0.388961     0.007504
AU1732   AU        0.780791    0.558953    0.389177     0.007504
AU1733   AU        0.780430    0.590076    0.422281     0.007504
AU1734   AU        0.815794    0.558560    0.420068     0.007504
AU1735   AU        0.816397    0.591761    0.392539     0.007504
AU1736   AU        0.123397    0.621661    0.389767     0.007504
AU1737   AU        0.122141    0.653407    0.424830     0.007504
AU1738   AU        0.158315    0.621460    0.422201     0.007504
AU1739   AU        0.158952    0.651563    0.390775     0.007504
AU1740   AU        0.192854    0.620624    0.388583     0.007504
AU1741   AU        0.192730    0.652819    0.422171     0.007504
PD1742   PD        0.226514    0.620046    0.420092     0.005394
AU1743   AU        0.228552    0.650278    0.388017     0.007504
PD1744   PD        0.260367    0.619818    0.389003     0.005394
PD1745   PD        0.257272    0.650474    0.422484     0.005394
PD1746   PD        0.294340    0.622217    0.422771     0.005394
PD1747   PD        0.292203    0.648942    0.387609     0.005394
PD1748   PD        0.326288    0.619594    0.389574     0.005394
PD1749   PD        0.326869    0.650102    0.423743     0.005394
PD1750   PD        0.357074    0.618359    0.422193     0.005394
PD1751   PD        0.358228    0.651030    0.387776     0.005394
PD1752   PD        0.389090    0.617043    0.391106     0.005394
PD1753   PD        0.389517    0.650544    0.421960     0.005394
PD1754   PD        0.421461    0.621470    0.423138     0.005394
PD1755   PD        0.423713    0.651141    0.391474     0.005394
PD1756   PD        0.456922    0.620286    0.389475     0.005394
PD1757   PD        0.455279    0.650154    0.424143     0.005394
PD1758   PD        0.486123    0.618838    0.422254     0.005394
PD1759   PD        0.486458    0.650473    0.389637     0.005394
PD1760   PD        0.519398    0.618881    0.391743     0.005394
PD1761   PD        0.519304    0.650784    0.421314     0.005394
PD1762   PD        0.551818    0.620396    0.420920     0.005394
PD1763   PD        0.553786    0.651099    0.391279     0.005394
PD1764   PD        0.587184    0.618304    0.391275     0.005394
PD1765   PD        0.587287    0.649751    0.423869     0.005394
PD1766   PD        0.617821    0.619908    0.421588     0.005394
PD1767   PD        0.616869    0.650965    0.390632     0.005394
PD1768   PD        0.650858    0.618780    0.390393     0.005394
PD1769   PD        0.649663    0.649596    0.421233     0.005394
PD1770   PD        0.683337    0.619766    0.421437     0.005394
AU1771   AU        0.682478    0.651723    0.389977     0.007504
AU1772   AU        0.715728    0.620691    0.390165     0.007504
AU1773   AU        0.715892    0.651133    0.424567     0.007504
AU1774   AU        0.748889    0.621226    0.422363     0.007504
AU1775   AU        0.747998    0.652821    0.390955     0.007504
AU1776   AU        0.783162    0.623431    0.388961     0.007504
AU1777   AU        0.782073    0.654993    0.420369     0.007504
PD1778   PD        0.145101    0.693784    0.442876     0.005394
AU1779   AU        0.195051    0.681277    0.387201     0.007504
AU1780   AU        0.190245    0.716730    0.417711     0.007504
AU1781   AU        0.226436    0.680820    0.420698     0.007504
AU1782   AU        0.227925    0.715273    0.391531     0.007504
AU1783   AU        0.261016    0.680275    0.388254     0.007504
AU1784   AU        0.258828    0.710617    0.422340     0.007504
PD1785   PD        0.291687    0.679267    0.422934     0.005394
AU1786   AU        0.292246    0.714333    0.390917     0.007504
PD1787   PD        0.322907    0.679860    0.389150     0.005394
AU1788   AU        0.324291    0.711774    0.421616     0.007504
PD1789   PD        0.356982    0.679013    0.421568     0.005394
AU1790   AU        0.355820    0.712551    0.389824     0.007504
PD1791   PD        0.388800    0.681603    0.388785     0.005394
PD1792   PD        0.388091    0.712156    0.423346     0.005394
PD1793   PD        0.420603    0.682142    0.421649     0.005394
PD1794   PD        0.419687    0.710678    0.388047     0.005394
PD1795   PD        0.454235    0.679989    0.392691     0.005394
PD1796   PD        0.453842    0.711187    0.423999     0.005394
PD1797   PD        0.486857    0.681971    0.423388     0.005394
PD1798   PD        0.486550    0.709861    0.390075     0.005394
PD1799   PD        0.519520    0.679421    0.390917     0.005394
PD1800   PD        0.519931    0.711091    0.422098     0.005394
PD1801   PD        0.552224    0.682197    0.423793     0.005394
PD1802   PD        0.553914    0.710897    0.389643     0.005394
PD1803   PD        0.583958    0.680328    0.389132     0.005394
AU1804   AU        0.585612    0.713147    0.421888     0.007504
PD1805   PD        0.615462    0.681947    0.421025     0.005394
AU1806   AU        0.616937    0.715161    0.390393     0.007504
AU1807   AU        0.650415    0.683111    0.389361     0.007504
AU1808   AU        0.651209    0.716047    0.424009     0.007504
AU1809   AU        0.682299    0.682825    0.422697     0.007504
AU1810   AU        0.684449    0.714913    0.392760     0.007504
AU1811   AU        0.716512    0.684012    0.390443     0.007504
AU1812   AU        0.718027    0.718840    0.424595     0.007504
AU1813   AU        0.751905    0.687847    0.423193     0.007504
PD1814   PD        0.159591    0.739658    0.442317     0.005394
AU1815   AU        0.257928    0.748259    0.391914     0.007504
AU1816   AU        0.290511    0.743224    0.422155     0.007504
AU1817   AU        0.292608    0.777003    0.393378     0.007504
AU1818   AU        0.323672    0.744864    0.390301     0.007504
PD1819   PD        0.359928    0.872070    0.421511     0.005394
AU1820   AU        0.356349    0.743077    0.422050     0.007504
AU1821   AU        0.355243    0.778216    0.390274     0.007504
AU1822   AU        0.388232    0.742973    0.388262     0.007504
AU1823   AU        0.389097    0.774146    0.419375     0.007504
AU1824   AU        0.421978    0.741712    0.419996     0.007504
AU1825   AU        0.421394    0.775088    0.388750     0.007504
AU1826   AU        0.455521    0.744619    0.388047     0.007504
AU1827   AU        0.452851    0.773264    0.423261     0.007504
AU1828   AU        0.485136    0.742892    0.422924     0.007504
AU1829   AU        0.487036    0.775858    0.387922     0.007504
AU1830   AU        0.518898    0.742849    0.390876     0.007504
AU1831   AU        0.518080    0.773339    0.421178     0.007504
AU1832   AU        0.551069    0.742445    0.422831     0.007504
AU1833   AU        0.551666    0.776352    0.391589     0.007504
AU1834   AU        0.586217    0.745121    0.389266     0.007504
AU1835   AU        0.583465    0.774345    0.422146     0.007504
AU1836   AU        0.618637    0.744653    0.424465     0.007504
AU1837   AU        0.619304    0.777397    0.390912     0.007504
AU1838   AU        0.649585    0.746691    0.391408     0.007504
AU1839   AU        0.685201    0.748139    0.424604     0.007504
AU1840   AU        0.420702    0.807134    0.424188     0.007504
AU1841   AU        0.453374    0.807384    0.392007     0.007504
PD1842   PD        0.521058    0.925650    0.389317     0.005394
AU1843   AU        0.287629    0.092930    0.455950     0.007504
AU1844   AU        0.324210    0.090943    0.487316     0.007504
AU1845   AU        0.354400    0.091832    0.455341     0.007504
AU1846   AU        0.389134    0.062185    0.456337     0.007504
AU1847   AU        0.389210    0.094491    0.489128     0.007504
AU1848   AU        0.423473    0.061804    0.489639     0.007504
AU1849   AU        0.419699    0.092471    0.454844     0.007504
AU1850   AU        0.454431    0.061308    0.455404     0.007504
AU1851   AU        0.454453    0.095264    0.487398     0.007504
AU1852   AU        0.489088    0.060729    0.485154     0.007504
AU1853   AU        0.487102    0.093549    0.454172     0.007504
AU1854   AU        0.524081    0.061326    0.453967     0.007504
AU1855   AU        0.519361    0.094789    0.486350     0.007504
PD1856   PD        0.608148    0.001153    0.463177     0.005394
AU1857   AU        0.585083    0.092021    0.487132     0.007504
AU1858   AU        0.619096    0.094255    0.453346     0.007504
AU1859   AU        0.186689    0.156260    0.489231     0.007504
AU1860   AU        0.221997    0.127585    0.487353     0.007504
AU1861   AU        0.221899    0.156751    0.454653     0.007504
AU1862   AU        0.258303    0.124357    0.455547     0.007504
AU1863   AU        0.258493    0.155068    0.489604     0.007504
AU1864   AU        0.291564    0.124074    0.489415     0.007504
AU1865   AU        0.290406    0.157811    0.456477     0.007504
AU1866   AU        0.322404    0.124706    0.454044     0.007504
AU1867   AU        0.323767    0.159111    0.489409     0.007504
AU1868   AU        0.356473    0.125034    0.487442     0.007504
PD1869   PD        0.354644    0.157040    0.457726     0.005394
AU1870   AU        0.387343    0.126444    0.454017     0.007504
PD1871   PD        0.387418    0.162017    0.488436     0.005394
AU1872   AU        0.420562    0.126891    0.489389     0.007504
PD1873   PD        0.419102    0.158737    0.456836     0.005394
AU1874   AU        0.452579    0.125712    0.454134     0.007504
PD1875   PD        0.452739    0.160988    0.486776     0.005394
AU1876   AU        0.487023    0.127314    0.486943     0.007504
PD1877   PD        0.485557    0.157512    0.454861     0.005394
AU1878   AU        0.517362    0.128880    0.454296     0.007504
PD1879   PD        0.518834    0.162613    0.489622     0.005394
AU1880   AU        0.554468    0.125636    0.485295     0.007504
PD1881   PD        0.552488    0.161325    0.454466     0.005394
AU1882   AU        0.587322    0.127082    0.452503     0.007504
AU1883   AU        0.586585    0.157320    0.486175     0.007504
AU1884   AU        0.619179    0.122938    0.486251     0.007504
AU1885   AU        0.619025    0.156728    0.453239     0.007504
AU1886   AU        0.656267    0.124376    0.453716     0.007504
AU1887   AU        0.650219    0.156471    0.488778     0.007504
AU1888   AU        0.685026    0.122445    0.488458     0.007504
AU1889   AU        0.686154    0.156323    0.459623     0.007504
AU1890   AU        0.720588    0.155228    0.487989     0.007504
PD1891   PD        0.120416    0.219743    0.489515     0.005394
AU1892   AU        0.157680    0.190213    0.491350     0.007504
AU1893   AU        0.158326    0.218109    0.457167     0.007504
AU1894   AU        0.191080    0.188087    0.456841     0.007504
AU1895   AU        0.193846    0.219586    0.488825     0.007504
AU1896   AU        0.224186    0.186869    0.488034     0.007504
PD1897   PD        0.223258    0.220063    0.455335     0.005394
AU1898   AU        0.258306    0.191833    0.455096     0.007504
PD1899   PD        0.255709    0.220887    0.486444     0.005394
AU1900   AU        0.289844    0.190595    0.488966     0.007504
PD1901   PD        0.291351    0.222691    0.456441     0.005394
PD1902   PD        0.322809    0.191400    0.455920     0.005394
PD1903   PD        0.323464    0.224058    0.489353     0.005394
PD1904   PD        0.355793    0.190898    0.491135     0.005394
PD1905   PD        0.352452    0.221723    0.456187     0.005394
PD1906   PD        0.387896    0.192995    0.455591     0.005394
PD1907   PD        0.389258    0.221519    0.489299     0.005394
PD1908   PD        0.420519    0.193154    0.488354     0.005394
PD1909   PD        0.421381    0.223605    0.453736     0.005394
PD1910   PD        0.452542    0.192491    0.453527     0.005394
PD1911   PD        0.454382    0.221796    0.486710     0.005394
PD1912   PD        0.484951    0.191533    0.488635     0.005394
PD1913   PD        0.486281    0.224910    0.455020     0.005394
PD1914   PD        0.519680    0.190669    0.456980     0.005394
PD1915   PD        0.523868    0.221520    0.486534     0.005394
PD1916   PD        0.554185    0.189517    0.487526     0.005394
PD1917   PD        0.556348    0.218408    0.457422     0.005394
PD1918   PD        0.587326    0.189673    0.451598     0.005394
PD1919   PD        0.583840    0.222919    0.489419     0.005394
PD1920   PD        0.617054    0.187329    0.486373     0.005394
PD1921   PD        0.618549    0.221190    0.455564     0.005394
AU1922   AU        0.650999    0.188952    0.455148     0.007504
PD1923   PD        0.649632    0.219766    0.488244     0.005394
AU1924   AU        0.683247    0.186843    0.489313     0.007504
AU1925   AU        0.685802    0.219353    0.455098     0.007504
AU1926   AU        0.719603    0.188281    0.455544     0.007504
AU1927   AU        0.717993    0.216900    0.488856     0.007504
AU1928   AU        0.754946    0.187845    0.490337     0.007504
AU1929   AU        0.751331    0.220478    0.456537     0.007504
AU1930   AU        0.788041    0.218311    0.493251     0.007504
AU1931   AU        0.088123    0.279338    0.456423     0.007504
AU1932   AU        0.084901    0.251649    0.421680     0.007504
AU1933   AU        0.122944    0.278099    0.489750     0.007504
AU1934   AU        0.159529    0.249232    0.489631     0.007504
AU1935   AU        0.153562    0.277412    0.455209     0.007504
AU1936   AU        0.192397    0.249286    0.454792     0.007504
PD1937   PD        0.190024    0.279861    0.488623     0.005394
PD1938   PD        0.225841    0.251115    0.487794     0.005394
PD1939   PD        0.225189    0.284306    0.453695     0.005394
PD1940   PD        0.257907    0.250831    0.455146     0.005394
PD1941   PD        0.259023    0.285905    0.485930     0.005394
PD1942   PD        0.291840    0.254501    0.490337     0.005394
PD1943   PD        0.292028    0.282970    0.453997     0.005394
PD1944   PD        0.323686    0.253620    0.455010     0.005394
PD1945   PD        0.323566    0.284882    0.487159     0.005394
PD1946   PD        0.356615    0.250372    0.487504     0.005394
PD1947   PD        0.357647    0.281706    0.456611     0.005394
PD1948   PD        0.390438    0.251825    0.454906     0.005394
PD1949   PD        0.390506    0.283430    0.488605     0.005394
PD1950   PD        0.422241    0.250892    0.489043     0.005394
PD1951   PD        0.421431    0.283537    0.454571     0.005394
PD1952   PD        0.453643    0.252032    0.455456     0.005394
PD1953   PD        0.454295    0.284134    0.488438     0.005394
PD1954   PD        0.489395    0.253718    0.488336     0.005394
PD1955   PD        0.487902    0.282004    0.457957     0.005394
PD1956   PD        0.523701    0.251452    0.456263     0.005394
PD1957   PD        0.522583    0.283527    0.488752     0.005394
PD1958   PD        0.553209    0.252975    0.488252     0.005394
PD1959   PD        0.553934    0.283149    0.456159     0.005394
PD1960   PD        0.586268    0.251991    0.453767     0.005394
PD1961   PD        0.584788    0.281812    0.487661     0.005394
PD1962   PD        0.618775    0.248533    0.490203     0.005394
PD1963   PD        0.618105    0.283001    0.456286     0.005394
PD1964   PD        0.648195    0.252054    0.454452     0.005394
PD1965   PD        0.649102    0.281900    0.489922     0.005394
AU1966   AU        0.681825    0.250716    0.487430     0.007504
PD1967   PD        0.681888    0.283688    0.457640     0.005394
AU1968   AU        0.716000    0.251453    0.457300     0.007504
AU1969   AU        0.715137    0.282891    0.489958     0.007504
AU1970   AU        0.752869    0.249267    0.487863     0.007504
AU1971   AU        0.748438    0.280955    0.457237     0.007504
AU1972   AU        0.784254    0.251315    0.454522     0.007504
AU1973   AU        0.784455    0.279392    0.488589     0.007504
AU1974   AU        0.819337    0.279838    0.454737     0.007504
AU1975   AU        0.090141    0.310504    0.486861     0.007504
AU1976   AU        0.089259    0.340897    0.455125     0.007504
AU1977   AU        0.122900    0.309863    0.454310     0.007504
AU1978   AU        0.125370    0.342265    0.486648     0.007504
AU1979   AU        0.158437    0.309837    0.488693     0.007504
PD1980   PD        0.158585    0.341864    0.453797     0.005394
PD1981   PD        0.192007    0.312925    0.450782     0.005394
PD1982   PD        0.190025    0.342029    0.486074     0.005394
PD1983   PD        0.221742    0.311491    0.486043     0.005394
PD1984   PD        0.225913    0.343916    0.454391     0.005394
PD1985   PD        0.258374    0.313085    0.454346     0.005394
PD1986   PD        0.256993    0.342562    0.486280     0.005394
PD1987   PD        0.290802    0.315439    0.487493     0.005394
PD1988   PD        0.290737    0.342773    0.455635     0.005394
PD1989   PD        0.324514    0.312945    0.454648     0.005394
PD1990   PD        0.323508    0.344585    0.486808     0.005394
PD1991   PD        0.357326    0.314032    0.490272     0.005394
PD1992   PD        0.355412    0.343615    0.455047     0.005394
PD1993   PD        0.386946    0.312996    0.455435     0.005394
PD1994   PD        0.388235    0.344393    0.489734     0.005394
PD1995   PD        0.419595    0.313037    0.487652     0.005394
PD1996   PD        0.420976    0.345423    0.454307     0.005394
PD1997   PD        0.453176    0.312515    0.454585     0.005394
PD1998   PD        0.452436    0.344775    0.487032     0.005394
PD1999   PD        0.487683    0.313897    0.488461     0.005394
PD2000   PD        0.485651    0.341316    0.454077     0.005394
PD2001   PD        0.520697    0.313440    0.456312     0.005394
PD2002   PD        0.518738    0.342982    0.486816     0.005394
PD2003   PD        0.553884    0.314932    0.489704     0.005394
PD2004   PD        0.552259    0.344161    0.457516     0.005394
PD2005   PD        0.585087    0.314245    0.456045     0.005394
PD2006   PD        0.584140    0.343153    0.487924     0.005394
PD2007   PD        0.618333    0.312149    0.488333     0.005394
PD2008   PD        0.619339    0.344957    0.456102     0.005394
PD2009   PD        0.652174    0.313040    0.455232     0.005394
PD2010   PD        0.648373    0.343779    0.488297     0.005394
PD2011   PD        0.681990    0.314368    0.490741     0.005394
PD2012   PD        0.681986    0.344440    0.455814     0.005394
PD2013   PD        0.713627    0.313753    0.457703     0.005394
PD2014   PD        0.715354    0.342085    0.490415     0.005394
AU2015   AU        0.746994    0.312872    0.490058     0.007504
PD2016   PD        0.746964    0.343342    0.456168     0.005394
AU2017   AU        0.783887    0.310737    0.457045     0.007504
AU2018   AU        0.779702    0.343638    0.490486     0.007504
AU2019   AU        0.817484    0.311072    0.487458     0.007504
AU2020   AU        0.813934    0.343799    0.457819     0.007504
AU2021   AU        0.058055    0.373195    0.454743     0.007504
AU2022   AU        0.053959    0.405447    0.486874     0.007504
AU2023   AU        0.093366    0.374691    0.486754     0.007504
AU2024   AU        0.090013    0.406234    0.454381     0.007504
AU2025   AU        0.124802    0.372417    0.452911     0.007504
AU2026   AU        0.128229    0.405319    0.484359     0.007504
PD2027   PD        0.157185    0.372584    0.483668     0.005394
PD2028   PD        0.158512    0.405420    0.453731     0.005394
PD2029   PD        0.190742    0.373849    0.451429     0.005394
PD2030   PD        0.192276    0.403751    0.485328     0.005394
PD2031   PD        0.224001    0.374305    0.483420     0.005394
PD2032   PD        0.225064    0.405523    0.452846     0.005394
PD2033   PD        0.257717    0.373752    0.455237     0.005394
PD2034   PD        0.258724    0.403597    0.485487     0.005394
PD2035   PD        0.289416    0.374495    0.486175     0.005394
PD2036   PD        0.289838    0.405554    0.454633     0.005394
PD2037   PD        0.322966    0.373565    0.454897     0.005394
PD2038   PD        0.321318    0.404729    0.492091     0.005394
PD2039   PD        0.355660    0.373562    0.489100     0.005394
PD2040   PD        0.354794    0.404146    0.455793     0.005394
PD2041   PD        0.386714    0.374486    0.458239     0.005394
PD2042   PD        0.390016    0.403490    0.486605     0.005394
PD2043   PD        0.420522    0.374070    0.487862     0.005394
PD2044   PD        0.422788    0.404531    0.454778     0.005394
PD2045   PD        0.453477    0.374786    0.452788     0.005394
PD2046   PD        0.454797    0.404873    0.486795     0.005394
PD2047   PD        0.486171    0.374333    0.488272     0.005394
PD2048   PD        0.487036    0.405280    0.455057     0.005394
PD2049   PD        0.519593    0.375975    0.453723     0.005394
PD2050   PD        0.520374    0.404489    0.488327     0.005394
PD2051   PD        0.552109    0.375199    0.488293     0.005394
PD2052   PD        0.551775    0.406209    0.453591     0.005394
PD2053   PD        0.585363    0.372057    0.457069     0.005394
PD2054   PD        0.583266    0.405212    0.488455     0.005394
PD2055   PD        0.615864    0.375617    0.489413     0.005394
PD2056   PD        0.616493    0.404372    0.456064     0.005394
PD2057   PD        0.648454    0.373961    0.457006     0.005394
PD2058   PD        0.649072    0.406757    0.490453     0.005394
PD2059   PD        0.682387    0.373988    0.488875     0.005394
PD2060   PD        0.680519    0.404135    0.455927     0.005394
PD2061   PD        0.714096    0.373674    0.458660     0.005394
PD2062   PD        0.716016    0.406069    0.490402     0.005394
PD2063   PD        0.746377    0.374615    0.490056     0.005394
PD2064   PD        0.744976    0.403201    0.456456     0.005394
AU2065   AU        0.782227    0.373789    0.458285     0.007504
AU2066   AU        0.779328    0.406138    0.488804     0.007504
AU2067   AU        0.820210    0.376142    0.489254     0.007504
AU2068   AU        0.815617    0.406113    0.456644     0.007504
AU2069   AU        0.850401    0.376253    0.452068     0.007504
AU2070   AU        0.853286    0.408569    0.491603     0.007504
AU2071   AU        0.054776    0.437967    0.454189     0.007504
PD2072   PD        0.000667    0.495848    0.452744     0.005394
AU2073   AU        0.092186    0.436155    0.488815     0.007504
AU2074   AU        0.091612    0.467929    0.454792     0.007504
AU2075   AU        0.125327    0.437183    0.454563     0.007504
AU2076   AU        0.126730    0.467427    0.488235     0.007504
PD2077   PD        0.160468    0.436743    0.489758     0.005394
PD2078   PD        0.159795    0.466701    0.456297     0.005394
PD2079   PD        0.190754    0.435209    0.454989     0.005394
PD2080   PD        0.192245    0.465724    0.487510     0.005394
PD2081   PD        0.225700    0.433538    0.487723     0.005394
PD2082   PD        0.223799    0.463327    0.454527     0.005394
PD2083   PD        0.258738    0.434705    0.452758     0.005394
PD2084   PD        0.258788    0.465087    0.488142     0.005394
PD2085   PD        0.291296    0.437577    0.487027     0.005394
PD2086   PD        0.288843    0.465497    0.454408     0.005394
PD2087   PD        0.322731    0.434561    0.456183     0.005394
PD2088   PD        0.324772    0.466956    0.489534     0.005394
PD2089   PD        0.354775    0.436983    0.488291     0.005394
PD2090   PD        0.355364    0.467347    0.455463     0.005394
PD2091   PD        0.386968    0.436462    0.455593     0.005394
PD2092   PD        0.389305    0.466965    0.485830     0.005394
PD2093   PD        0.420657    0.433317    0.487379     0.005394
PD2094   PD        0.423248    0.464179    0.453182     0.005394
PD2095   PD        0.455876    0.434502    0.453536     0.005394
PD2096   PD        0.455074    0.466596    0.488486     0.005394
PD2097   PD        0.487097    0.435533    0.487175     0.005394
PD2098   PD        0.485644    0.465661    0.452160     0.005394
PD2099   PD        0.518420    0.433592    0.457435     0.005394
PD2100   PD        0.520593    0.466958    0.488690     0.005394
PD2101   PD        0.550770    0.437513    0.487731     0.005394
PD2102   PD        0.551357    0.467239    0.453356     0.005394
PD2103   PD        0.584751    0.436872    0.453452     0.005394
PD2104   PD        0.584587    0.467777    0.488548     0.005394
PD2105   PD        0.616306    0.434533    0.487951     0.005394
PD2106   PD        0.618689    0.465267    0.456007     0.005394
PD2107   PD        0.651933    0.435318    0.457073     0.005394
PD2108   PD        0.649188    0.468714    0.486779     0.005394
PD2109   PD        0.683491    0.434385    0.487420     0.005394
PD2110   PD        0.682331    0.465576    0.455727     0.005394
PD2111   PD        0.714964    0.435010    0.456481     0.005394
PD2112   PD        0.714265    0.466173    0.487908     0.005394
PD2113   PD        0.747211    0.436914    0.489017     0.005394
PD2114   PD        0.747640    0.465507    0.453530     0.005394
AU2115   AU        0.778921    0.435429    0.456688     0.007504
AU2116   AU        0.781028    0.465871    0.487091     0.007504
AU2117   AU        0.817685    0.436508    0.488055     0.007504
AU2118   AU        0.815547    0.466336    0.454827     0.007504
AU2119   AU        0.848228    0.437832    0.453375     0.007504
AU2120   AU        0.852456    0.467135    0.488912     0.007504
AU2121   AU        0.054600    0.500478    0.455628     0.007504
AU2122   AU        0.089574    0.498643    0.485581     0.007504
AU2123   AU        0.094020    0.528931    0.455638     0.007504
AU2124   AU        0.127629    0.497717    0.454335     0.007504
AU2125   AU        0.129388    0.528178    0.486299     0.007504
PD2126   PD        0.161546    0.497270    0.486321     0.005394
PD2127   PD        0.161479    0.527605    0.454639     0.005394
PD2128   PD        0.192149    0.496130    0.451355     0.005394
PD2129   PD        0.191890    0.528127    0.485657     0.005394
PD2130   PD        0.224487    0.497037    0.486835     0.005394
PD2131   PD        0.225227    0.528390    0.453505     0.005394
PD2132   PD        0.256072    0.496450    0.455172     0.005394
PD2133   PD        0.258062    0.528013    0.487484     0.005394
PD2134   PD        0.290098    0.496657    0.489130     0.005394
PD2135   PD        0.292549    0.527064    0.454969     0.005394
PD2136   PD        0.321522    0.495742    0.453944     0.005394
PD2137   PD        0.323821    0.526222    0.489301     0.005394
PD2138   PD        0.356221    0.497390    0.486927     0.005394
PD2139   PD        0.354944    0.527211    0.453915     0.005394
PD2140   PD        0.387111    0.498142    0.453960     0.005394
PD2141   PD        0.387091    0.527528    0.490834     0.005394
PD2142   PD        0.422426    0.496858    0.486877     0.005394
PD2143   PD        0.422330    0.529078    0.454356     0.005394
PD2144   PD        0.454037    0.496144    0.453635     0.005394
PD2145   PD        0.455571    0.528194    0.488715     0.005394
PD2146   PD        0.484402    0.496167    0.487953     0.005394
PD2147   PD        0.486319    0.527313    0.456438     0.005394
PD2148   PD        0.517128    0.496107    0.453245     0.005394
PD2149   PD        0.518362    0.527198    0.489527     0.005394
PD2150   PD        0.552821    0.497416    0.488355     0.005394
PD2151   PD        0.552467    0.527726    0.456318     0.005394
PD2152   PD        0.586260    0.497091    0.455852     0.005394
PD2153   PD        0.583622    0.529576    0.489261     0.005394
PD2154   PD        0.615113    0.498079    0.486900     0.005394
PD2155   PD        0.617036    0.529089    0.456347     0.005394
PD2156   PD        0.651665    0.498358    0.456035     0.005394
PD2157   PD        0.648622    0.529310    0.489684     0.005394
PD2158   PD        0.679437    0.500036    0.487819     0.005394
PD2159   PD        0.681704    0.530893    0.455237     0.005394
PD2160   PD        0.714054    0.498862    0.458927     0.005394
PD2161   PD        0.714396    0.527428    0.486401     0.005394
PD2162   PD        0.747331    0.496597    0.485833     0.005394
PD2163   PD        0.748627    0.527090    0.455853     0.005394
AU2164   AU        0.781998    0.497964    0.455508     0.007504
AU2165   AU        0.782915    0.529812    0.486488     0.007504
AU2166   AU        0.816915    0.496911    0.487738     0.007504
AU2167   AU        0.816582    0.529564    0.453955     0.007504
AU2168   AU        0.850691    0.497623    0.453799     0.007504
AU2169   AU        0.053021    0.562599    0.518551     0.007504
AU2170   AU        0.089555    0.588604    0.461458     0.007504
AU2171   AU        0.127559    0.558531    0.454768     0.007504
AU2172   AU        0.126906    0.587460    0.487973     0.007504
AU2173   AU        0.161379    0.558063    0.486530     0.007504
AU2174   AU        0.160403    0.589267    0.456002     0.007504
PD2175   PD        0.194811    0.559426    0.452423     0.005394
AU2176   AU        0.192868    0.589877    0.487537     0.007504
PD2177   PD        0.225803    0.559010    0.486585     0.005394
PD2178   PD        0.224768    0.589295    0.453203     0.005394
PD2179   PD        0.261424    0.558885    0.454309     0.005394
PD2180   PD        0.260940    0.588122    0.489893     0.005394
PD2181   PD        0.292902    0.556921    0.486868     0.005394
PD2182   PD        0.290011    0.590619    0.456436     0.005394
PD2183   PD        0.324629    0.557071    0.453919     0.005394
PD2184   PD        0.325380    0.589323    0.486767     0.005394
PD2185   PD        0.358062    0.558064    0.486550     0.005394
PD2186   PD        0.357321    0.587907    0.453144     0.005394
PD2187   PD        0.388294    0.557018    0.454913     0.005394
PD2188   PD        0.389692    0.590328    0.484917     0.005394
PD2189   PD        0.421075    0.557384    0.486424     0.005394
PD2190   PD        0.423683    0.590719    0.454213     0.005394
PD2191   PD        0.453477    0.559407    0.455020     0.005394
PD2192   PD        0.455220    0.588172    0.488931     0.005394
PD2193   PD        0.486291    0.558418    0.486105     0.005394
PD2194   PD        0.487776    0.588912    0.454533     0.005394
PD2195   PD        0.519591    0.559292    0.455333     0.005394
PD2196   PD        0.517741    0.589001    0.487901     0.005394
PD2197   PD        0.550829    0.561454    0.489491     0.005394
PD2198   PD        0.551251    0.589526    0.458050     0.005394
PD2199   PD        0.584389    0.560434    0.458074     0.005394
PD2200   PD        0.584813    0.590179    0.488039     0.005394
PD2201   PD        0.617280    0.558263    0.487835     0.005394
PD2202   PD        0.617307    0.588636    0.455632     0.005394
PD2203   PD        0.650968    0.561183    0.455310     0.005394
PD2204   PD        0.648146    0.589613    0.487844     0.005394
PD2205   PD        0.679566    0.558267    0.486795     0.005394
PD2206   PD        0.681156    0.590788    0.454443     0.005394
PD2207   PD        0.715691    0.558406    0.451905     0.005394
PD2208   PD        0.715535    0.587420    0.486979     0.005394
AU2209   AU        0.750979    0.559662    0.486365     0.007504
AU2210   AU        0.782356    0.623926    0.452945     0.007504
AU2211   AU        0.784337    0.559876    0.452257     0.007504
AU2212   AU        0.783309    0.590365    0.486018     0.007504
AU2213   AU        0.820325    0.560699    0.485791     0.007504
AU2214   AU        0.815937    0.590695    0.452183     0.007504
AU2215   AU        0.121136    0.620117    0.456050     0.007504
AU2216   AU        0.121209    0.654604    0.489936     0.007504
AU2217   AU        0.157923    0.619307    0.489497     0.007504
AU2218   AU        0.158576    0.649061    0.456988     0.007504
AU2219   AU        0.194211    0.619841    0.454999     0.007504
AU2220   AU        0.193557    0.650343    0.487790     0.007504
PD2221   PD        0.226959    0.618888    0.486208     0.005394
AU2222   AU        0.225538    0.649272    0.454692     0.007504
PD2223   PD        0.257518    0.619997    0.454043     0.005394
PD2224   PD        0.257600    0.649541    0.488699     0.005394
PD2225   PD        0.290598    0.619731    0.489785     0.005394
PD2226   PD        0.289496    0.648994    0.453866     0.005394
PD2227   PD        0.322303    0.620646    0.456187     0.005394
PD2228   PD        0.323393    0.651126    0.489159     0.005394
PD2229   PD        0.357574    0.617473    0.487035     0.005394
PD2230   PD        0.357127    0.649811    0.456186     0.005394
PD2231   PD        0.389161    0.620076    0.453971     0.005394
PD2232   PD        0.387500    0.650606    0.488153     0.005394
PD2233   PD        0.422599    0.619698    0.486403     0.005394
PD2234   PD        0.420699    0.650489    0.455517     0.005394
PD2235   PD        0.455532    0.621206    0.455461     0.005394
PD2236   PD        0.454105    0.649444    0.487860     0.005394
PD2237   PD        0.488463    0.621707    0.487301     0.005394
PD2238   PD        0.488648    0.650258    0.454318     0.005394
PD2239   PD        0.520056    0.619231    0.455087     0.005394
PD2240   PD        0.520971    0.649550    0.489770     0.005394
PD2241   PD        0.553884    0.621301    0.489678     0.005394
PD2242   PD        0.549644    0.649998    0.455777     0.005394
PD2243   PD        0.583676    0.620163    0.454366     0.005394
PD2244   PD        0.583849    0.650715    0.490132     0.005394
PD2245   PD        0.616769    0.621741    0.488695     0.005394
PD2246   PD        0.617730    0.649851    0.455355     0.005394
PD2247   PD        0.648370    0.620148    0.453651     0.005394
PD2248   PD        0.648912    0.652152    0.487365     0.005394
PD2249   PD        0.682193    0.621194    0.486794     0.005394
AU2250   AU        0.680696    0.650038    0.456259     0.007504
AU2251   AU        0.714823    0.619397    0.455414     0.007504
AU2252   AU        0.716240    0.653662    0.487578     0.007504
AU2253   AU        0.746781    0.618770    0.486283     0.007504
AU2254   AU        0.749029    0.652089    0.455479     0.007504
PD2255   PD        0.792404    0.671088    0.466176     0.005394
PD2256   PD        0.910735    0.682032    0.530686     0.005394
AU2257   AU        0.159886    0.682439    0.486589     0.007504
AU2258   AU        0.190719    0.685435    0.452849     0.007504
AU2259   AU        0.190094    0.714513    0.489714     0.007504
AU2260   AU        0.223601    0.681294    0.486034     0.007504
AU2261   AU        0.226561    0.712496    0.452890     0.007504
AU2262   AU        0.258622    0.679751    0.454399     0.007504
AU2263   AU        0.256145    0.711666    0.488354     0.007504
PD2264   PD        0.289845    0.678994    0.487243     0.005394
AU2265   AU        0.291540    0.709604    0.455240     0.007504
PD2266   PD        0.326063    0.679988    0.454855     0.005394
AU2267   AU        0.321451    0.712244    0.488040     0.007504
PD2268   PD        0.356238    0.681768    0.487658     0.005394
PD2269   PD        0.354679    0.712561    0.456831     0.005394
PD2270   PD        0.388847    0.681013    0.456642     0.005394
PD2271   PD        0.388148    0.713878    0.488716     0.005394
PD2272   PD        0.421176    0.679646    0.487468     0.005394
PD2273   PD        0.420892    0.708711    0.457022     0.005394
PD2274   PD        0.453885    0.680316    0.453865     0.005394
PD2275   PD        0.452707    0.711164    0.487042     0.005394
PD2276   PD        0.484845    0.680097    0.486423     0.005394
PD2277   PD        0.485880    0.711708    0.454152     0.005394
PD2278   PD        0.519910    0.680189    0.454314     0.005394
PD2279   PD        0.516678    0.709495    0.488013     0.005394
PD2280   PD        0.552345    0.679551    0.485635     0.005394
PD2281   PD        0.550756    0.710240    0.453547     0.005394
PD2282   PD        0.586591    0.681761    0.454515     0.005394
AU2283   AU        0.582088    0.714245    0.486815     0.007504
AU2284   AU        0.614391    0.682491    0.489566     0.007504
AU2285   AU        0.618433    0.713161    0.455121     0.007504
AU2286   AU        0.648243    0.681226    0.454151     0.007504
AU2287   AU        0.650889    0.715170    0.488806     0.007504
AU2288   AU        0.681984    0.683009    0.486997     0.007504
AU2289   AU        0.682968    0.713618    0.454754     0.007504
AU2290   AU        0.717262    0.684531    0.453341     0.007504
AU2291   AU        0.716332    0.712569    0.488358     0.007504
AU2292   AU        0.751148    0.685715    0.489781     0.007504
AU2293   AU        0.225634    0.745758    0.486862     0.007504
AU2294   AU        0.257932    0.742388    0.454842     0.007504
AU2295   AU        0.290409    0.744321    0.489243     0.007504
PD2296   PD        0.270262    0.849730    0.475854     0.005394
AU2297   AU        0.322849    0.744567    0.453966     0.007504
AU2298   AU        0.322837    0.776939    0.485634     0.007504
AU2299   AU        0.353623    0.744956    0.489847     0.007504
AU2300   AU        0.357362    0.774678    0.453588     0.007504
AU2301   AU        0.389005    0.744291    0.453843     0.007504
AU2302   AU        0.387415    0.774929    0.489903     0.007504
AU2303   AU        0.421655    0.741087    0.486994     0.007504
AU2304   AU        0.418076    0.774343    0.452980     0.007504
AU2305   AU        0.454461    0.740978    0.454950     0.007504
AU2306   AU        0.452967    0.774738    0.485482     0.007504
AU2307   AU        0.485674    0.741593    0.488001     0.007504
AU2308   AU        0.486338    0.776069    0.455394     0.007504
AU2309   AU        0.519208    0.743217    0.455620     0.007504
AU2310   AU        0.517063    0.774247    0.487769     0.007504
AU2311   AU        0.549957    0.744135    0.488367     0.007504
AU2312   AU        0.550319    0.775253    0.454885     0.007504
AU2313   AU        0.584351    0.743042    0.454364     0.007504
AU2314   AU        0.584265    0.775087    0.487277     0.007504
AU2315   AU        0.616180    0.747289    0.487740     0.007504
AU2316   AU        0.617401    0.780257    0.453060     0.007504
AU2317   AU        0.650603    0.746345    0.458174     0.007504
AU2318   AU        0.685432    0.745151    0.488814     0.007504
PD2319   PD        0.421583    0.840489    0.458600     0.005394
AU2320   AU        0.420174    0.804839    0.488872     0.007504
PD2321   PD        0.455617    0.841558    0.496985     0.005394
AU2322   AU        0.488378    0.808838    0.491453     0.007504
AU2323   AU        0.518502    0.806869    0.455077     0.007504
AU2324   AU        0.287911    0.090818    0.521849     0.007504
AU2325   AU        0.323363    0.093908    0.555495     0.007504
AU2326   AU        0.357513    0.089871    0.520657     0.007504
AU2327   AU        0.390487    0.092220    0.553229     0.007504
AU2328   AU        0.421913    0.093877    0.520935     0.007504
PD2329   PD        0.482650    0.041987    0.524968     0.005394
AU2330   AU        0.454296    0.089951    0.554294     0.007504
AU2331   AU        0.486113    0.092343    0.518849     0.007504
AU2332   AU        0.519802    0.091547    0.552386     0.007504
AU2333   AU        0.554056    0.094608    0.520682     0.007504
AU2334   AU        0.582249    0.094356    0.555416     0.007504
AU2335   AU        0.616392    0.091963    0.522363     0.007504
AU2336   AU        0.219248    0.155928    0.520976     0.007504
AU2337   AU        0.253316    0.122069    0.521596     0.007504
AU2338   AU        0.257896    0.157466    0.550941     0.007504
AU2339   AU        0.289585    0.124368    0.553619     0.007504
AU2340   AU        0.290325    0.155278    0.522629     0.007504
AU2341   AU        0.325007    0.121842    0.521040     0.007504
AU2342   AU        0.324198    0.156151    0.553302     0.007504
AU2343   AU        0.358291    0.125020    0.553176     0.007504
AU2344   AU        0.357005    0.157434    0.521198     0.007504
AU2345   AU        0.390083    0.126415    0.521329     0.007504
AU2346   AU        0.390062    0.159441    0.552619     0.007504
AU2347   AU        0.420353    0.125824    0.553308     0.007504
PD2348   PD        0.421435    0.161130    0.519969     0.005394
AU2349   AU        0.454666    0.126938    0.521231     0.007504
PD2350   PD        0.452189    0.161456    0.552671     0.005394
AU2351   AU        0.485976    0.122958    0.554195     0.007504
PD2352   PD        0.485339    0.159575    0.519728     0.005394
AU2353   AU        0.518663    0.125832    0.519015     0.007504
PD2354   PD        0.516101    0.157520    0.551699     0.005394
AU2355   AU        0.550252    0.125248    0.553711     0.007504
PD2356   PD        0.553418    0.156887    0.518753     0.005394
AU2357   AU        0.585679    0.126380    0.520887     0.007504
AU2358   AU        0.585552    0.154967    0.556107     0.007504
AU2359   AU        0.617165    0.122413    0.557844     0.007504
AU2360   AU        0.619817    0.154587    0.521133     0.007504
AU2361   AU        0.650817    0.122362    0.522696     0.007504
AU2362   AU        0.652435    0.154089    0.556168     0.007504
AU2363   AU        0.683201    0.152205    0.521396     0.007504
AU2364   AU        0.156872    0.219788    0.523624     0.007504
AU2365   AU        0.191212    0.192223    0.522466     0.007504
AU2366   AU        0.190474    0.221608    0.555118     0.007504
AU2367   AU        0.222202    0.185028    0.554123     0.007504
AU2368   AU        0.228602    0.220354    0.522133     0.007504
AU2369   AU        0.258234    0.189728    0.519403     0.007504
PD2370   PD        0.259124    0.216810    0.556459     0.005394
AU2371   AU        0.290312    0.186613    0.556287     0.007504
PD2372   PD        0.291923    0.219057    0.522723     0.005394
PD2373   PD        0.325343    0.188671    0.520428     0.005394
PD2374   PD        0.323736    0.219907    0.554249     0.005394
PD2375   PD        0.356445    0.188326    0.552889     0.005394
PD2376   PD        0.355846    0.221172    0.521047     0.005394
PD2377   PD        0.389627    0.190068    0.521607     0.005394
PD2378   PD        0.387649    0.220078    0.554211     0.005394
PD2379   PD        0.422403    0.192142    0.553049     0.005394
PD2380   PD        0.422475    0.221784    0.520216     0.005394
PD2381   PD        0.452895    0.191255    0.519367     0.005394
PD2382   PD        0.454957    0.219586    0.554073     0.005394
PD2383   PD        0.484638    0.188584    0.553877     0.005394
PD2384   PD        0.485970    0.222917    0.521309     0.005394
PD2385   PD        0.519450    0.189743    0.521394     0.005394
PD2386   PD        0.521417    0.222888    0.552574     0.005394
PD2387   PD        0.552983    0.188002    0.552693     0.005394
PD2388   PD        0.549853    0.221859    0.521073     0.005394
PD2389   PD        0.586113    0.186165    0.522581     0.005394
PD2390   PD        0.584760    0.214981    0.554764     0.005394
AU2391   AU        0.621308    0.187329    0.553848     0.007504
PD2392   PD        0.616791    0.217440    0.521506     0.005394
AU2393   AU        0.648790    0.189215    0.520112     0.007504
AU2394   AU        0.651919    0.219953    0.555310     0.007504
AU2395   AU        0.685478    0.185459    0.551721     0.007504
AU2396   AU        0.681424    0.219113    0.521021     0.007504
AU2397   AU        0.717575    0.183320    0.521321     0.007504
AU2398   AU        0.719377    0.217489    0.552698     0.007504
AU2399   AU        0.752563    0.220708    0.521508     0.007504
PD2400   PD        0.088929    0.280013    0.523615     0.005394
PD2401   PD        0.019147    0.253509    0.502701     0.005394
AU2402   AU        0.124141    0.285133    0.555764     0.007504
AU2403   AU        0.155341    0.252297    0.554876     0.007504
AU2404   AU        0.159346    0.280953    0.520602     0.007504
AU2405   AU        0.189923    0.250408    0.523789     0.007504
AU2406   AU        0.190009    0.283025    0.553859     0.007504
PD2407   PD        0.225044    0.253273    0.557358     0.005394
PD2408   PD        0.222832    0.278879    0.522348     0.005394
PD2409   PD        0.257563    0.252426    0.518644     0.005394
PD2410   PD        0.261429    0.278679    0.553539     0.005394
PD2411   PD        0.291207    0.247978    0.553801     0.005394
PD2412   PD        0.291145    0.284205    0.519775     0.005394
PD2413   PD        0.323700    0.254126    0.519915     0.005394
PD2414   PD        0.320646    0.282251    0.553250     0.005394
PD2415   PD        0.356791    0.253553    0.553547     0.005394
PD2416   PD        0.356476    0.283513    0.522848     0.005394
PD2417   PD        0.388629    0.252718    0.521894     0.005394
PD2418   PD        0.389317    0.282735    0.554405     0.005394
PD2419   PD        0.423421    0.251315    0.553575     0.005394
PD2420   PD        0.419625    0.282265    0.522683     0.005394
PD2421   PD        0.453937    0.252970    0.521987     0.005394
PD2422   PD        0.454627    0.283109    0.553155     0.005394
PD2423   PD        0.486800    0.251904    0.554164     0.005394
PD2424   PD        0.486977    0.284532    0.520741     0.005394
PD2425   PD        0.521894    0.252209    0.521976     0.005394
PD2426   PD        0.519073    0.283475    0.551301     0.005394
PD2427   PD        0.554603    0.250418    0.554368     0.005394
PD2428   PD        0.550980    0.283737    0.520435     0.005394
PD2429   PD        0.585559    0.253134    0.520907     0.005394
PD2430   PD        0.582822    0.282673    0.553087     0.005394
PD2431   PD        0.617471    0.251720    0.556083     0.005394
PD2432   PD        0.617109    0.281524    0.523178     0.005394
PD2433   PD        0.650310    0.250577    0.522788     0.005394
PD2434   PD        0.650173    0.278860    0.553328     0.005394
PD2435   PD        0.684681    0.249506    0.555225     0.005394
PD2436   PD        0.683139    0.281172    0.521694     0.005394
AU2437   AU        0.716803    0.249482    0.519707     0.007504
AU2438   AU        0.715360    0.279065    0.554672     0.007504
AU2439   AU        0.750092    0.251101    0.553601     0.007504
AU2440   AU        0.750070    0.280564    0.522605     0.007504
AU2441   AU        0.787655    0.251092    0.525124     0.007504
AU2442   AU        0.787335    0.280629    0.557853     0.007504
AU2443   AU        0.820398    0.285793    0.522462     0.007504
AU2444   AU        0.087114    0.314357    0.551712     0.007504
AU2445   AU        0.091822    0.343280    0.518923     0.007504
AU2446   AU        0.123303    0.312765    0.519102     0.007504
AU2447   AU        0.124560    0.343702    0.553670     0.007504
AU2448   AU        0.157406    0.313854    0.552938     0.007504
PD2449   PD        0.160036    0.344718    0.518497     0.005394
PD2450   PD        0.191448    0.313265    0.520689     0.005394
PD2451   PD        0.192122    0.342646    0.551866     0.005394
PD2452   PD        0.223329    0.313163    0.553438     0.005394
PD2453   PD        0.225350    0.342546    0.517495     0.005394
PD2454   PD        0.258205    0.310399    0.521201     0.005394
PD2455   PD        0.255682    0.343290    0.554110     0.005394
PD2456   PD        0.291125    0.312590    0.553762     0.005394
PD2457   PD        0.289751    0.345060    0.518296     0.005394
PD2458   PD        0.323398    0.312301    0.520036     0.005394
PD2459   PD        0.321548    0.343621    0.554931     0.005394
PD2460   PD        0.353645    0.313988    0.553699     0.005394
PD2461   PD        0.354790    0.345200    0.521956     0.005394
PD2462   PD        0.389077    0.314499    0.522540     0.005394
PD2463   PD        0.386360    0.345187    0.555379     0.005394
PD2464   PD        0.422057    0.314445    0.552768     0.005394
PD2465   PD        0.422176    0.344404    0.520848     0.005394
PD2466   PD        0.453820    0.313925    0.518984     0.005394
PD2467   PD        0.456929    0.342449    0.554593     0.005394
PD2468   PD        0.486285    0.313394    0.552409     0.005394
PD2469   PD        0.487418    0.345554    0.520236     0.005394
PD2470   PD        0.520153    0.314270    0.521064     0.005394
PD2471   PD        0.518667    0.344922    0.551576     0.005394
PD2472   PD        0.551586    0.314725    0.551693     0.005394
PD2473   PD        0.551320    0.344345    0.520969     0.005394
PD2474   PD        0.586230    0.312041    0.521007     0.005394
PD2475   PD        0.583804    0.345365    0.554799     0.005394
PD2476   PD        0.616832    0.312571    0.553914     0.005394
PD2477   PD        0.619040    0.344437    0.521006     0.005394
PD2478   PD        0.650062    0.311445    0.522433     0.005394
PD2479   PD        0.647723    0.344915    0.557305     0.005394
PD2480   PD        0.682708    0.310149    0.553843     0.005394
PD2481   PD        0.681436    0.344363    0.520065     0.005394
PD2482   PD        0.713594    0.313913    0.521625     0.005394
PD2483   PD        0.714299    0.345276    0.553526     0.005394
AU2484   AU        0.746842    0.311252    0.554559     0.007504
AU2485   AU        0.747291    0.343934    0.522041     0.007504
AU2486   AU        0.782272    0.311359    0.519826     0.007504
AU2487   AU        0.779764    0.345728    0.554326     0.007504
AU2488   AU        0.814987    0.315425    0.555562     0.007504
AU2489   AU        0.816252    0.343246    0.520541     0.007504
AU2490   AU        0.089699    0.374187    0.551219     0.007504
AU2491   AU        0.089319    0.403692    0.519888     0.007504
AU2492   AU        0.126856    0.373137    0.519639     0.007504
AU2493   AU        0.122675    0.404411    0.552248     0.007504
AU2494   AU        0.156856    0.373762    0.553199     0.007504
PD2495   PD        0.161445    0.403217    0.518986     0.005394
PD2496   PD        0.193001    0.372777    0.519985     0.005394
PD2497   PD        0.194334    0.404377    0.551850     0.005394
PD2498   PD        0.227376    0.375355    0.553358     0.005394
PD2499   PD        0.224593    0.402894    0.519351     0.005394
PD2500   PD        0.257182    0.373523    0.520191     0.005394
PD2501   PD        0.257307    0.402739    0.554225     0.005394
PD2502   PD        0.289467    0.374794    0.552927     0.005394
PD2503   PD        0.291294    0.404903    0.520114     0.005394
PD2504   PD        0.322641    0.374907    0.522864     0.005394
PD2505   PD        0.322944    0.405950    0.552551     0.005394
PD2506   PD        0.356379    0.376209    0.554073     0.005394
PD2507   PD        0.354413    0.407665    0.519277     0.005394
PD2508   PD        0.388471    0.374518    0.522038     0.005394
PD2509   PD        0.387937    0.406417    0.551777     0.005394
PD2510   PD        0.421415    0.377130    0.555100     0.005394
PD2511   PD        0.421104    0.404284    0.518808     0.005394
PD2512   PD        0.453585    0.373772    0.520970     0.005394
PD2513   PD        0.454409    0.405983    0.551565     0.005394
PD2514   PD        0.486035    0.375482    0.553758     0.005394
PD2515   PD        0.487388    0.403730    0.520128     0.005394
PD2516   PD        0.517324    0.374022    0.518559     0.005394
PD2517   PD        0.518824    0.406332    0.552627     0.005394
PD2518   PD        0.552898    0.376745    0.551264     0.005394
PD2519   PD        0.551605    0.406674    0.519603     0.005394
PD2520   PD        0.585772    0.376047    0.520521     0.005394
PD2521   PD        0.586228    0.406913    0.554487     0.005394
PD2522   PD        0.617950    0.373687    0.552599     0.005394
PD2523   PD        0.617320    0.406646    0.522674     0.005394
PD2524   PD        0.647918    0.374171    0.521185     0.005394
PD2525   PD        0.650464    0.404695    0.555004     0.005394
PD2526   PD        0.682900    0.373710    0.555664     0.005394
PD2527   PD        0.682793    0.404358    0.522793     0.005394
PD2528   PD        0.714584    0.375228    0.521510     0.005394
PD2529   PD        0.712888    0.406916    0.554054     0.005394
PD2530   PD        0.745266    0.375776    0.554020     0.005394
PD2531   PD        0.744822    0.405225    0.521296     0.005394
AU2532   AU        0.779961    0.375948    0.521153     0.007504
AU2533   AU        0.780761    0.404340    0.553405     0.007504
AU2534   AU        0.816515    0.374979    0.552142     0.007504
AU2535   AU        0.812969    0.406211    0.520447     0.007504
AU2536   AU        0.057666    0.438112    0.518519     0.007504
AU2537   AU        0.088794    0.439081    0.550620     0.007504
AU2538   AU        0.092048    0.467136    0.518450     0.007504
AU2539   AU        0.126567    0.433934    0.518739     0.007504
AU2540   AU        0.124289    0.465359    0.551557     0.007504
PD2541   PD        0.156812    0.435454    0.551661     0.005394
PD2542   PD        0.158629    0.466930    0.520273     0.005394
PD2543   PD        0.194013    0.434540    0.518648     0.005394
PD2544   PD        0.193374    0.464382    0.552867     0.005394
PD2545   PD        0.226728    0.435665    0.551531     0.005394
PD2546   PD        0.228036    0.466575    0.517955     0.005394
PD2547   PD        0.258856    0.432869    0.517914     0.005394
PD2548   PD        0.256398    0.466281    0.554979     0.005394
PD2549   PD        0.287639    0.432934    0.552882     0.005394
PD2550   PD        0.289584    0.464672    0.522093     0.005394
PD2551   PD        0.322591    0.436436    0.520942     0.005394
PD2552   PD        0.322119    0.465241    0.552830     0.005394
PD2553   PD        0.355844    0.438518    0.555583     0.005394
PD2554   PD        0.357926    0.465873    0.522066     0.005394
PD2555   PD        0.389257    0.437233    0.522498     0.005394
PD2556   PD        0.390923    0.465278    0.554648     0.005394
PD2557   PD        0.423556    0.436197    0.552458     0.005394
PD2558   PD        0.420688    0.465476    0.519795     0.005394
PD2559   PD        0.453965    0.433680    0.518538     0.005394
PD2560   PD        0.456265    0.467182    0.551868     0.005394
PD2561   PD        0.485685    0.436524    0.550632     0.005394
PD2562   PD        0.487368    0.466243    0.519326     0.005394
PD2563   PD        0.519665    0.435344    0.519640     0.005394
PD2564   PD        0.518929    0.466766    0.551656     0.005394
PD2565   PD        0.550898    0.434514    0.552438     0.005394
PD2566   PD        0.550616    0.465050    0.520968     0.005394
PD2567   PD        0.584852    0.437554    0.519760     0.005394
PD2568   PD        0.585034    0.467590    0.551677     0.005394
PD2569   PD        0.617098    0.438236    0.552344     0.005394
PD2570   PD        0.618643    0.466506    0.519188     0.005394
PD2571   PD        0.650989    0.435458    0.526308     0.005394
PD2572   PD        0.650100    0.468436    0.555517     0.005394
PD2573   PD        0.679195    0.438498    0.552282     0.005394
PD2574   PD        0.682388    0.465487    0.522537     0.005394
PD2575   PD        0.715885    0.435281    0.519727     0.005394
PD2576   PD        0.713520    0.467548    0.553344     0.005394
PD2577   PD        0.747476    0.438942    0.554186     0.005394
PD2578   PD        0.745834    0.468429    0.522222     0.005394
AU2579   AU        0.780127    0.435900    0.521819     0.007504
AU2580   AU        0.783538    0.468538    0.553735     0.007504
AU2581   AU        0.814860    0.436755    0.552311     0.007504
AU2582   AU        0.814379    0.466832    0.518911     0.007504
PD2583   PD        0.874404    0.434472    0.562368     0.005394
AU2584   AU        0.089974    0.493936    0.554157     0.007504
AU2585   AU        0.090661    0.527356    0.520739     0.007504
AU2586   AU        0.126681    0.498546    0.520731     0.007504
AU2587   AU        0.125890    0.525475    0.553823     0.007504
AU2588   AU        0.160387    0.494142    0.551480     0.007504
AU2589   AU        0.160789    0.527448    0.521654     0.007504
PD2590   PD        0.194016    0.495447    0.517979     0.005394
PD2591   PD        0.195712    0.525968    0.552012     0.005394
PD2592   PD        0.224723    0.495761    0.551340     0.005394
PD2593   PD        0.225317    0.527608    0.518275     0.005394
PD2594   PD        0.257236    0.496357    0.518692     0.005394
PD2595   PD        0.259103    0.526357    0.552802     0.005394
PD2596   PD        0.289865    0.495231    0.552415     0.005394
PD2597   PD        0.291149    0.526322    0.520715     0.005394
PD2598   PD        0.322218    0.494590    0.522296     0.005394
PD2599   PD        0.323694    0.525482    0.553990     0.005394
PD2600   PD        0.358726    0.495438    0.553588     0.005394
PD2601   PD        0.355493    0.527635    0.518299     0.005394
PD2602   PD        0.389590    0.495688    0.520143     0.005394
PD2603   PD        0.389530    0.528821    0.554774     0.005394
PD2604   PD        0.422200    0.496204    0.551641     0.005394
PD2605   PD        0.423441    0.527966    0.519358     0.005394
PD2606   PD        0.453737    0.496937    0.520105     0.005394
PD2607   PD        0.452869    0.529076    0.552116     0.005394
PD2608   PD        0.488270    0.497828    0.552996     0.005394
PD2609   PD        0.486020    0.528477    0.520854     0.005394
PD2610   PD        0.518960    0.497633    0.521952     0.005394
PD2611   PD        0.519785    0.529159    0.552830     0.005394
PD2612   PD        0.549685    0.498763    0.552848     0.005394
PD2613   PD        0.551612    0.530495    0.518884     0.005394
PD2614   PD        0.583865    0.497526    0.520286     0.005394
PD2615   PD        0.586162    0.526962    0.552008     0.005394
PD2616   PD        0.615991    0.497176    0.554041     0.005394
PD2617   PD        0.617041    0.526527    0.520736     0.005394
PD2618   PD        0.648621    0.497900    0.523659     0.005394
PD2619   PD        0.649509    0.530263    0.554846     0.005394
PD2620   PD        0.682448    0.499337    0.552807     0.005394
PD2621   PD        0.682622    0.527783    0.519265     0.005394
PD2622   PD        0.716929    0.497330    0.521484     0.005394
PD2623   PD        0.714730    0.529315    0.552702     0.005394
PD2624   PD        0.747932    0.499326    0.555363     0.005394
AU2625   AU        0.748633    0.527941    0.517185     0.007504
AU2626   AU        0.782477    0.498441    0.519601     0.007504
AU2627   AU        0.781698    0.528443    0.551645     0.007504
AU2628   AU        0.820497    0.497085    0.552904     0.007504
AU2629   AU        0.816175    0.526874    0.518516     0.007504
AU2630   AU        0.091394    0.559303    0.551587     0.007504
AU2631   AU        0.089621    0.589138    0.516407     0.007504
AU2632   AU        0.126564    0.556649    0.520294     0.007504
AU2633   AU        0.125942    0.591790    0.555574     0.007504
AU2634   AU        0.158087    0.557512    0.552620     0.007504
AU2635   AU        0.159808    0.587535    0.520302     0.007504
PD2636   PD        0.191577    0.556247    0.523223     0.005394
AU2637   AU        0.193667    0.588532    0.552483     0.007504
PD2638   PD        0.226099    0.555735    0.551881     0.005394
PD2639   PD        0.225203    0.587069    0.518413     0.005394
PD2640   PD        0.259161    0.558601    0.521423     0.005394
PD2641   PD        0.257803    0.588033    0.555496     0.005394
PD2642   PD        0.290719    0.554791    0.552757     0.005394
PD2643   PD        0.292036    0.587176    0.519704     0.005394
PD2644   PD        0.322720    0.556912    0.520868     0.005394
PD2645   PD        0.323958    0.586522    0.553200     0.005394
PD2646   PD        0.354413    0.557587    0.553207     0.005394
PD2647   PD        0.355524    0.588758    0.521001     0.005394
PD2648   PD        0.386190    0.558073    0.522209     0.005394
PD2649   PD        0.386899    0.588314    0.554831     0.005394
PD2650   PD        0.424952    0.558590    0.553308     0.005394
PD2651   PD        0.418413    0.588293    0.520866     0.005394
PD2652   PD        0.453577    0.558499    0.519945     0.005394
PD2653   PD        0.453967    0.586800    0.552175     0.005394
PD2654   PD        0.487053    0.559271    0.554654     0.005394
PD2655   PD        0.487066    0.588742    0.520451     0.005394
PD2656   PD        0.518658    0.559970    0.521837     0.005394
PD2657   PD        0.517523    0.589240    0.553613     0.005394
PD2658   PD        0.551455    0.558266    0.554820     0.005394
PD2659   PD        0.553661    0.590440    0.522962     0.005394
PD2660   PD        0.584714    0.559028    0.520466     0.005394
PD2661   PD        0.583613    0.589369    0.554046     0.005394
PD2662   PD        0.616094    0.557804    0.551238     0.005394
PD2663   PD        0.615287    0.590713    0.521236     0.005394
PD2664   PD        0.648333    0.561147    0.519963     0.005394
PD2665   PD        0.649197    0.589313    0.554458     0.005394
PD2666   PD        0.682489    0.560622    0.552899     0.005394
PD2667   PD        0.682699    0.588902    0.517402     0.005394
PD2668   PD        0.713748    0.558493    0.519455     0.005394
AU2669   AU        0.715749    0.588861    0.552645     0.007504
AU2670   AU        0.747897    0.557188    0.551504     0.007504
AU2671   AU        0.747588    0.589407    0.520653     0.007504
AU2672   AU        0.782932    0.559926    0.517541     0.007504
AU2673   AU        0.782428    0.589486    0.551411     0.007504
AU2674   AU        0.814677    0.559171    0.550119     0.007504
AU2675   AU        0.814787    0.592579    0.518943     0.007504
AU2676   AU        0.125065    0.617779    0.519390     0.007504
AU2677   AU        0.160987    0.619052    0.551016     0.007504
AU2678   AU        0.157687    0.651413    0.521748     0.007504
AU2679   AU        0.193603    0.619189    0.519913     0.007504
AU2680   AU        0.190310    0.650422    0.553142     0.007504
PD2681   PD        0.225282    0.619593    0.551616     0.005394
AU2682   AU        0.225967    0.649525    0.520788     0.007504
PD2683   PD        0.258031    0.617405    0.520064     0.005394
PD2684   PD        0.257552    0.649057    0.554674     0.005394
PD2685   PD        0.290178    0.617554    0.552735     0.005394
PD2686   PD        0.290149    0.647931    0.523672     0.005394
PD2687   PD        0.324579    0.620054    0.519199     0.005394
PD2688   PD        0.325433    0.649879    0.551784     0.005394
PD2689   PD        0.355322    0.618415    0.554460     0.005394
PD2690   PD        0.356041    0.649129    0.520265     0.005394
PD2691   PD        0.390509    0.617287    0.521101     0.005394
PD2692   PD        0.389376    0.647951    0.552444     0.005394
PD2693   PD        0.421773    0.617705    0.555307     0.005394
PD2694   PD        0.421115    0.647976    0.518640     0.005394
PD2695   PD        0.452901    0.617693    0.519359     0.005394
PD2696   PD        0.453293    0.647853    0.554149     0.005394
PD2697   PD        0.484033    0.618029    0.553213     0.005394
PD2698   PD        0.484915    0.650775    0.521396     0.005394
PD2699   PD        0.518492    0.620449    0.521937     0.005394
PD2700   PD        0.517538    0.650123    0.553438     0.005394
PD2701   PD        0.551418    0.620648    0.554036     0.005394
PD2702   PD        0.554512    0.653153    0.523078     0.005394
PD2703   PD        0.585944    0.623997    0.523112     0.005394
PD2704   PD        0.585702    0.651930    0.553889     0.005394
PD2705   PD        0.620207    0.619690    0.552423     0.005394
PD2706   PD        0.618456    0.651692    0.521258     0.005394
PD2707   PD        0.651589    0.620193    0.519509     0.005394
PD2708   PD        0.650558    0.649788    0.553522     0.005394
PD2709   PD        0.682969    0.619847    0.552568     0.005394
AU2710   AU        0.681887    0.649813    0.520964     0.007504
AU2711   AU        0.715568    0.620804    0.518980     0.007504
AU2712   AU        0.714944    0.652603    0.552286     0.007504
AU2713   AU        0.747548    0.619357    0.552458     0.007504
AU2714   AU        0.748368    0.651604    0.520847     0.007504
AU2715   AU        0.778685    0.620338    0.518237     0.007504
AU2716   AU        0.191337    0.682109    0.521062     0.007504
AU2717   AU        0.220927    0.682392    0.553232     0.007504
AU2718   AU        0.221397    0.714019    0.520923     0.007504
AU2719   AU        0.254305    0.680652    0.521568     0.007504
AU2720   AU        0.257632    0.711403    0.551558     0.007504
AU2721   AU        0.289977    0.679517    0.551942     0.007504
AU2722   AU        0.289938    0.711267    0.519594     0.007504
PD2723   PD        0.324303    0.678333    0.520419     0.005394
AU2724   AU        0.323632    0.710417    0.552546     0.007504
PD2725   PD        0.358157    0.680389    0.553555     0.005394
PD2726   PD        0.357723    0.713843    0.521287     0.005394
PD2727   PD        0.388099    0.678960    0.521535     0.005394
PD2728   PD        0.386649    0.711487    0.554917     0.005394
PD2729   PD        0.421703    0.678949    0.552524     0.005394
PD2730   PD        0.419174    0.708640    0.523526     0.005394
PD2731   PD        0.452461    0.677121    0.520912     0.005394
PD2732   PD        0.454671    0.710024    0.554294     0.005394
PD2733   PD        0.486155    0.682391    0.557689     0.005394
PD2734   PD        0.485388    0.711258    0.524222     0.005394
PD2735   PD        0.518131    0.682375    0.522982     0.005394
AU2736   AU        0.519214    0.713098    0.556073     0.007504
PD2737   PD        0.551816    0.682665    0.555710     0.005394
PD2738   PD        0.551111    0.710727    0.519523     0.005394
PD2739   PD        0.582420    0.680505    0.522205     0.005394
AU2740   AU        0.584160    0.714791    0.551910     0.007504
PD2741   PD        0.616259    0.681322    0.554848     0.005394
AU2742   AU        0.616569    0.713208    0.518896     0.007504
AU2743   AU        0.649284    0.681418    0.519554     0.007504
AU2744   AU        0.650617    0.713128    0.552953     0.007504
AU2745   AU        0.683078    0.683354    0.556282     0.007504
AU2746   AU        0.684406    0.716396    0.524318     0.007504
PD2747   PD        0.725261    0.744617    0.519982     0.005394
AU2748   AU        0.256916    0.743958    0.522198     0.007504
PD2749   PD        0.262500    0.744792    0.582531     0.005394
PD2750   PD        0.222544    0.774260    0.528086     0.005394
AU2751   AU        0.322245    0.744218    0.522412     0.007504
AU2752   AU        0.320331    0.777337    0.552164     0.007504
AU2753   AU        0.356080    0.744099    0.553889     0.007504
AU2754   AU        0.353236    0.778028    0.520755     0.007504
AU2755   AU        0.389409    0.743640    0.521591     0.007504
AU2756   AU        0.387840    0.775479    0.552349     0.007504
AU2757   AU        0.421256    0.742811    0.553853     0.007504
AU2758   AU        0.421390    0.775634    0.521408     0.007504
AU2759   AU        0.452240    0.742132    0.520816     0.007504
AU2760   AU        0.455191    0.775058    0.555152     0.007504
AU2761   AU        0.486096    0.742465    0.555947     0.007504
AU2762   AU        0.484097    0.772962    0.521424     0.007504
AU2763   AU        0.516714    0.743205    0.521116     0.007504
AU2764   AU        0.518138    0.773494    0.554464     0.007504
AU2765   AU        0.550622    0.745268    0.551941     0.007504
AU2766   AU        0.548715    0.776840    0.519752     0.007504
AU2767   AU        0.584911    0.746531    0.521353     0.007504
AU2768   AU        0.584314    0.777247    0.553866     0.007504
AU2769   AU        0.617846    0.745551    0.553032     0.007504
AU2770   AU        0.618416    0.777949    0.521248     0.007504
AU2771   AU        0.652524    0.747411    0.522282     0.007504
AU2772   AU        0.454571    0.804735    0.523023     0.007504
AU2773   AU        0.356815    0.092510    0.584563     0.007504
AU2774   AU        0.390109    0.090573    0.618501     0.007504
AU2775   AU        0.422697    0.096327    0.588039     0.007504
AU2776   AU        0.453058    0.089403    0.623095     0.007504
AU2777   AU        0.483376    0.091054    0.588093     0.007504
AU2778   AU        0.516688    0.093415    0.624572     0.007504
AU2779   AU        0.548853    0.091163    0.591296     0.007504
AU2780   AU        0.223552    0.154122    0.585862     0.007504
AU2781   AU        0.259156    0.154347    0.621663     0.007504
PD2782   PD        0.257655    0.000625    0.709185     0.005394
AU2783   AU        0.290438    0.154575    0.587622     0.007504
AU2784   AU        0.326306    0.126064    0.588055     0.007504
AU2785   AU        0.325827    0.156571    0.621622     0.007504
AU2786   AU        0.356965    0.121455    0.624052     0.007504
AU2787   AU        0.357553    0.157556    0.586041     0.007504
AU2788   AU        0.389463    0.126093    0.587021     0.007504
AU2789   AU        0.389074    0.156663    0.619419     0.007504
AU2790   AU        0.422432    0.124237    0.620845     0.007504
AU2791   AU        0.421338    0.157660    0.587362     0.007504
AU2792   AU        0.454881    0.126389    0.586294     0.007504
AU2793   AU        0.455717    0.157463    0.620128     0.007504
AU2794   AU        0.485417    0.124055    0.622477     0.007504
PD2795   PD        0.486771    0.156126    0.584805     0.005394
AU2796   AU        0.514940    0.121727    0.588806     0.007504
AU2797   AU        0.516732    0.156632    0.616888     0.007504
AU2798   AU        0.552001    0.123758    0.621726     0.007504
AU2799   AU        0.552584    0.153889    0.587926     0.007504
AU2800   AU        0.584884    0.123771    0.589389     0.007504
AU2801   AU        0.586803    0.155949    0.622237     0.007504
PD2802   PD        0.633910    0.116828    0.603477     0.005394
AU2803   AU        0.619862    0.155412    0.588376     0.007504
AU2804   AU        0.649718    0.155251    0.622612     0.007504
AU2805   AU        0.683704    0.156993    0.590240     0.007504
AU2806   AU        0.153509    0.222275    0.584018     0.007504
AU2807   AU        0.186875    0.186558    0.583826     0.007504
AU2808   AU        0.187518    0.218797    0.616621     0.007504
AU2809   AU        0.222843    0.185925    0.620087     0.007504
AU2810   AU        0.222818    0.218803    0.585606     0.007504
AU2811   AU        0.255309    0.187127    0.588973     0.007504
AU2812   AU        0.258099    0.220149    0.621112     0.007504
AU2813   AU        0.292001    0.186755    0.622190     0.007504
PD2814   PD        0.294263    0.218548    0.588127     0.005394
AU2815   AU        0.324882    0.186775    0.587146     0.007504
PD2816   PD        0.324808    0.220395    0.622045     0.005394
AU2817   AU        0.358591    0.189325    0.620993     0.007504
PD2818   PD        0.356924    0.220377    0.588332     0.005394
PD2819   PD        0.391104    0.191403    0.586018     0.005394
PD2820   PD        0.390171    0.221031    0.617531     0.005394
PD2821   PD        0.422550    0.191553    0.618370     0.005394
PD2822   PD        0.422491    0.222763    0.585259     0.005394
PD2823   PD        0.454838    0.189941    0.587107     0.005394
PD2824   PD        0.454916    0.222958    0.615254     0.005394
PD2825   PD        0.486552    0.189268    0.616525     0.005394
PD2826   PD        0.488025    0.220506    0.584137     0.005394
PD2827   PD        0.518118    0.188861    0.581897     0.005394
PD2828   PD        0.519694    0.221122    0.616748     0.005394
AU2829   AU        0.551261    0.187193    0.618516     0.007504
PD2830   PD        0.552342    0.221069    0.584908     0.005394
PD2831   PD        0.587109    0.185398    0.586892     0.005394
PD2832   PD        0.585201    0.218179    0.619976     0.005394
AU2833   AU        0.618447    0.188104    0.620032     0.007504
PD2834   PD        0.617743    0.217588    0.587287     0.005394
AU2835   AU        0.653512    0.189827    0.586760     0.007504
AU2836   AU        0.651755    0.221823    0.621266     0.007504
AU2837   AU        0.684168    0.188463    0.622316     0.007504
AU2838   AU        0.684961    0.219723    0.586239     0.007504
AU2839   AU        0.717745    0.183982    0.584891     0.007504
AU2840   AU        0.719354    0.217254    0.620770     0.007504
AU2841   AU        0.751720    0.216698    0.585692     0.007504
AU2842   AU        0.120783    0.279881    0.618388     0.007504
AU2843   AU        0.155612    0.252662    0.619609     0.007504
AU2844   AU        0.155108    0.282714    0.588657     0.007504
AU2845   AU        0.187802    0.252396    0.586140     0.007504
AU2846   AU        0.191462    0.281630    0.620546     0.007504
AU2847   AU        0.224595    0.247425    0.617916     0.007504
PD2848   PD        0.223438    0.278311    0.584914     0.005394
PD2849   PD        0.259142    0.248905    0.587672     0.005394
PD2850   PD        0.258813    0.281663    0.621208     0.005394
PD2851   PD        0.292578    0.252215    0.618202     0.005394
PD2852   PD        0.286474    0.283849    0.583844     0.005394
PD2853   PD        0.325517    0.252359    0.585979     0.005394
PD2854   PD        0.325584    0.281596    0.617956     0.005394
PD2855   PD        0.357408    0.252278    0.618408     0.005394
PD2856   PD        0.357582    0.284231    0.587298     0.005394
PD2857   PD        0.388586    0.253807    0.585295     0.005394
PD2858   PD        0.389998    0.281488    0.617932     0.005394
PD2859   PD        0.423194    0.252410    0.617135     0.005394
PD2860   PD        0.423507    0.284132    0.584907     0.005394
PD2861   PD        0.453591    0.254269    0.586282     0.005394
PD2862   PD        0.454675    0.281213    0.618815     0.005394
PD2863   PD        0.487432    0.253878    0.618479     0.005394
PD2864   PD        0.486858    0.283184    0.585048     0.005394
PD2865   PD        0.518540    0.253505    0.586696     0.005394
PD2866   PD        0.519567    0.285752    0.617951     0.005394
PD2867   PD        0.551935    0.253822    0.617673     0.005394
PD2868   PD        0.552948    0.282441    0.584960     0.005394
PD2869   PD        0.587783    0.248270    0.589959     0.005394
PD2870   PD        0.584191    0.285571    0.617241     0.005394
PD2871   PD        0.615009    0.253628    0.618584     0.005394
PD2872   PD        0.619220    0.283284    0.587658     0.005394
PD2873   PD        0.649490    0.251154    0.587714     0.005394
PD2874   PD        0.652231    0.279303    0.617946     0.005394
AU2875   AU        0.685592    0.251461    0.622517     0.007504
PD2876   PD        0.683651    0.280278    0.585819     0.005394
AU2877   AU        0.719535    0.248237    0.588639     0.007504
AU2878   AU        0.715758    0.283796    0.619277     0.007504
AU2879   AU        0.754350    0.248253    0.621401     0.007504
AU2880   AU        0.752361    0.277866    0.590409     0.007504
AU2881   AU        0.785353    0.282621    0.627293     0.007504
AU2882   AU        0.088526    0.344464    0.584539     0.007504
AU2883   AU        0.121677    0.314682    0.588973     0.007504
AU2884   AU        0.124739    0.345373    0.622524     0.007504
AU2885   AU        0.156395    0.312078    0.620195     0.007504
AU2886   AU        0.155983    0.346207    0.585890     0.007504
PD2887   PD        0.187966    0.310730    0.586931     0.005394
AU2888   AU        0.186882    0.345545    0.621893     0.007504
PD2889   PD        0.223013    0.314272    0.617291     0.005394
PD2890   PD        0.220881    0.343570    0.584235     0.005394
PD2891   PD        0.255998    0.313345    0.584946     0.005394
PD2892   PD        0.259731    0.343046    0.621328     0.005394
PD2893   PD        0.292002    0.311795    0.618105     0.005394
PD2894   PD        0.289600    0.344190    0.587605     0.005394
PD2895   PD        0.320291    0.313053    0.586406     0.005394
PD2896   PD        0.321967    0.344595    0.619690     0.005394
PD2897   PD        0.353633    0.311977    0.619877     0.005394
PD2898   PD        0.351703    0.343130    0.587329     0.005394
PD2899   PD        0.389057    0.314942    0.585092     0.005394
PD2900   PD        0.386551    0.342987    0.617636     0.005394
PD2901   PD        0.418040    0.313447    0.617840     0.005394
PD2902   PD        0.420660    0.344441    0.586393     0.005394
PD2903   PD        0.454372    0.313244    0.584914     0.005394
PD2904   PD        0.453715    0.343567    0.617446     0.005394
PD2905   PD        0.483116    0.313488    0.617903     0.005394
PD2906   PD        0.485966    0.345714    0.589104     0.005394
PD2907   PD        0.517618    0.316971    0.585016     0.005394
PD2908   PD        0.519532    0.348006    0.619586     0.005394
PD2909   PD        0.552358    0.313957    0.616276     0.005394
PD2910   PD        0.551151    0.345991    0.584313     0.005394
PD2911   PD        0.584705    0.313961    0.584514     0.005394
PD2912   PD        0.583302    0.343935    0.617896     0.005394
PD2913   PD        0.617827    0.313883    0.616838     0.005394
PD2914   PD        0.615854    0.345280    0.585836     0.005394
PD2915   PD        0.649981    0.310895    0.585285     0.005394
PD2916   PD        0.651936    0.346242    0.620062     0.005394
PD2917   PD        0.680470    0.312765    0.619125     0.005394
PD2918   PD        0.684967    0.344682    0.584748     0.005394
PD2919   PD        0.714830    0.311971    0.584957     0.005394
AU2920   AU        0.714226    0.346931    0.619666     0.007504
AU2921   AU        0.748419    0.313523    0.619942     0.007504
AU2922   AU        0.746788    0.343388    0.587520     0.007504
AU2923   AU        0.780191    0.314566    0.585550     0.007504
AU2924   AU        0.780557    0.345909    0.621934     0.007504
AU2925   AU        0.814021    0.344092    0.588457     0.007504
AU2926   AU        0.085471    0.375091    0.615335     0.007504
AU2927   AU        0.087972    0.406076    0.584885     0.007504
AU2928   AU        0.123940    0.375444    0.587939     0.007504
AU2929   AU        0.120737    0.404553    0.620641     0.007504
AU2930   AU        0.158152    0.377101    0.619373     0.007504
AU2931   AU        0.158702    0.406202    0.584559     0.007504
PD2932   PD        0.190192    0.373659    0.584139     0.005394
PD2933   PD        0.192281    0.403205    0.618585     0.005394
PD2934   PD        0.222141    0.372332    0.618558     0.005394
PD2935   PD        0.223398    0.404597    0.584155     0.005394
PD2936   PD        0.259573    0.374669    0.586289     0.005394
PD2937   PD        0.259430    0.409251    0.620238     0.005394
PD2938   PD        0.290929    0.374790    0.618385     0.005394
PD2939   PD        0.291723    0.404595    0.586644     0.005394
PD2940   PD        0.322420    0.374471    0.585628     0.005394
PD2941   PD        0.321459    0.406737    0.618824     0.005394
PD2942   PD        0.354286    0.375565    0.616888     0.005394
PD2943   PD        0.355593    0.404777    0.585302     0.005394
PD2944   PD        0.388917    0.374191    0.586284     0.005394
PD2945   PD        0.387032    0.404298    0.617038     0.005394
PD2946   PD        0.423092    0.375358    0.617862     0.005394
PD2947   PD        0.419568    0.405942    0.586620     0.005394
PD2948   PD        0.454460    0.376739    0.583082     0.005394
PD2949   PD        0.454157    0.405334    0.618907     0.005394
PD2950   PD        0.487188    0.376939    0.619330     0.005394
PD2951   PD        0.486823    0.404883    0.585111     0.005394
PD2952   PD        0.518127    0.374648    0.584484     0.005394
PD2953   PD        0.519636    0.408094    0.616920     0.005394
PD2954   PD        0.550923    0.374830    0.619238     0.005394
PD2955   PD        0.551836    0.405959    0.585611     0.005394
PD2956   PD        0.584049    0.378245    0.588193     0.005394
PD2957   PD        0.586002    0.405698    0.617756     0.005394
PD2958   PD        0.616147    0.373828    0.620113     0.005394
PD2959   PD        0.617710    0.407087    0.585179     0.005394
PD2960   PD        0.647600    0.375930    0.585199     0.005394
PD2961   PD        0.648065    0.406521    0.621734     0.005394
PD2962   PD        0.682959    0.375358    0.621230     0.005394
PD2963   PD        0.680792    0.405032    0.588887     0.005394
PD2964   PD        0.716688    0.377929    0.588441     0.005394
PD2965   PD        0.714905    0.406573    0.618295     0.005394
AU2966   AU        0.746427    0.374634    0.623000     0.007504
PD2967   PD        0.744955    0.409972    0.586148     0.005394
AU2968   AU        0.781355    0.375240    0.588600     0.007504
AU2969   AU        0.777811    0.405464    0.619117     0.007504
AU2970   AU        0.815226    0.376606    0.622099     0.007504
AU2971   AU        0.818809    0.404429    0.583679     0.007504
AU2972   AU        0.088216    0.437523    0.620706     0.007504
AU2973   AU        0.087348    0.466695    0.586881     0.007504
AU2974   AU        0.123921    0.437665    0.584752     0.007504
AU2975   AU        0.123952    0.468064    0.619112     0.007504
AU2976   AU        0.157574    0.436967    0.616663     0.007504
AU2977   AU        0.160434    0.466323    0.584260     0.007504
PD2978   PD        0.192534    0.435051    0.585807     0.005394
AU2979   AU        0.191953    0.465456    0.617463     0.007504
PD2980   PD        0.223041    0.434279    0.619924     0.005394
PD2981   PD        0.226128    0.467473    0.584268     0.005394
PD2982   PD        0.256870    0.433742    0.583952     0.005394
PD2983   PD        0.258008    0.467065    0.620955     0.005394
PD2984   PD        0.287282    0.437429    0.618559     0.005394
PD2985   PD        0.290028    0.466156    0.583843     0.005394
PD2986   PD        0.320743    0.435818    0.586237     0.005394
PD2987   PD        0.322819    0.467504    0.617502     0.005394
PD2988   PD        0.353799    0.435946    0.620202     0.005394
PD2989   PD        0.355919    0.468271    0.588520     0.005394
PD2990   PD        0.390597    0.435720    0.584847     0.005394
PD2991   PD        0.387629    0.466410    0.619902     0.005394
PD2992   PD        0.420664    0.435115    0.619208     0.005394
PD2993   PD        0.422612    0.467772    0.586607     0.005394
PD2994   PD        0.454282    0.434365    0.585157     0.005394
PD2995   PD        0.453801    0.468845    0.617829     0.005394
PD2996   PD        0.483304    0.438495    0.620812     0.005394
PD2997   PD        0.485392    0.467146    0.587303     0.005394
PD2998   PD        0.519306    0.438296    0.583485     0.005394
PD2999   PD        0.517066    0.466396    0.620408     0.005394
PD3000   PD        0.550951    0.437789    0.619206     0.005394
PD3001   PD        0.552652    0.466549    0.583090     0.005394
PD3002   PD        0.584090    0.436439    0.585814     0.005394
PD3003   PD        0.585527    0.467820    0.617053     0.005394
PD3004   PD        0.616353    0.437511    0.615225     0.005394
PD3005   PD        0.615472    0.467473    0.585254     0.005394
PD3006   PD        0.649877    0.437199    0.585271     0.005394
PD3007   PD        0.648204    0.466609    0.617714     0.005394
PD3008   PD        0.684340    0.436286    0.617751     0.005394
PD3009   PD        0.684731    0.470365    0.585353     0.005394
PD3010   PD        0.712159    0.436442    0.584636     0.005394
PD3011   PD        0.716132    0.470451    0.621941     0.005394
AU3012   AU        0.747415    0.437946    0.619558     0.007504
AU3013   AU        0.746194    0.468251    0.586909     0.007504
AU3014   AU        0.781716    0.437136    0.583889     0.007504
AU3015   AU        0.781072    0.466893    0.616689     0.007504
AU3016   AU        0.814573    0.435350    0.619149     0.007504
AU3017   AU        0.817786    0.466430    0.587165     0.007504
AU3018   AU        0.088960    0.498085    0.619503     0.007504
AU3019   AU        0.089929    0.528148    0.584365     0.007504
AU3020   AU        0.125128    0.494666    0.584514     0.007504
AU3021   AU        0.122098    0.525758    0.617713     0.007504
AU3022   AU        0.159854    0.496939    0.618319     0.007504
AU3023   AU        0.160632    0.525521    0.585424     0.007504
PD3024   PD        0.194937    0.497271    0.588161     0.005394
AU3025   AU        0.189313    0.529847    0.619176     0.007504
PD3026   PD        0.221326    0.496943    0.615248     0.005394
PD3027   PD        0.226388    0.527806    0.587120     0.005394
PD3028   PD        0.258440    0.496312    0.584855     0.005394
PD3029   PD        0.256546    0.528049    0.617873     0.005394
PD3030   PD        0.287879    0.495009    0.618413     0.005394
PD3031   PD        0.290812    0.525278    0.584869     0.005394
PD3032   PD        0.323399    0.496267    0.583492     0.005394
PD3033   PD        0.322646    0.526021    0.617369     0.005394
PD3034   PD        0.355682    0.497607    0.617605     0.005394
PD3035   PD        0.356277    0.527229    0.583594     0.005394
PD3036   PD        0.391760    0.497193    0.583975     0.005394
PD3037   PD        0.387783    0.527680    0.618339     0.005394
PD3038   PD        0.420227    0.496314    0.619675     0.005394
PD3039   PD        0.420542    0.527601    0.585389     0.005394
PD3040   PD        0.454250    0.500332    0.587087     0.005394
PD3041   PD        0.450336    0.527002    0.617821     0.005394
PD3042   PD        0.486473    0.496022    0.618274     0.005394
PD3043   PD        0.486323    0.526665    0.584422     0.005394
PD3044   PD        0.518796    0.496167    0.585454     0.005394
PD3045   PD        0.519600    0.528907    0.619156     0.005394
PD3046   PD        0.550623    0.498178    0.618880     0.005394
PD3047   PD        0.550579    0.529153    0.584961     0.005394
PD3048   PD        0.583468    0.499348    0.586383     0.005394
PD3049   PD        0.582259    0.530179    0.617664     0.005394
PD3050   PD        0.616049    0.497838    0.615793     0.005394
PD3051   PD        0.615815    0.530255    0.586818     0.005394
PD3052   PD        0.650377    0.499256    0.587840     0.005394
PD3053   PD        0.648208    0.530674    0.618093     0.005394
PD3054   PD        0.683299    0.498200    0.619497     0.005394
PD3055   PD        0.682936    0.526044    0.588664     0.005394
PD3056   PD        0.713666    0.496240    0.587708     0.005394
AU3057   AU        0.715181    0.526593    0.620884     0.007504
AU3058   AU        0.750379    0.501307    0.619064     0.007504
AU3059   AU        0.749523    0.531239    0.587385     0.007504
AU3060   AU        0.783922    0.499782    0.584285     0.007504
AU3061   AU        0.785275    0.530222    0.620077     0.007504
AU3062   AU        0.814117    0.498979    0.616146     0.007504
AU3063   AU        0.815334    0.528672    0.582658     0.007504
AU3064   AU        0.124581    0.558033    0.585547     0.007504
PD3065   PD        0.060587    0.639721    0.709857     0.005394
AU3066   AU        0.155991    0.558527    0.618413     0.007504
AU3067   AU        0.158987    0.589924    0.587882     0.007504
AU3068   AU        0.192754    0.557994    0.585129     0.007504
AU3069   AU        0.192503    0.588897    0.619467     0.007504
PD3070   PD        0.225900    0.558090    0.616231     0.005394
PD3071   PD        0.224103    0.591389    0.586716     0.005394
PD3072   PD        0.260052    0.556972    0.586462     0.005394
PD3073   PD        0.258392    0.589389    0.615636     0.005394
PD3074   PD        0.290288    0.559228    0.621770     0.005394
PD3075   PD        0.289245    0.586181    0.584511     0.005394
PD3076   PD        0.321066    0.557984    0.585333     0.005394
PD3077   PD        0.322045    0.589843    0.616546     0.005394
PD3078   PD        0.352707    0.556105    0.617487     0.005394
PD3079   PD        0.356690    0.587438    0.586631     0.005394
PD3080   PD        0.387328    0.559653    0.588994     0.005394
PD3081   PD        0.388772    0.590755    0.618588     0.005394
PD3082   PD        0.421492    0.560224    0.618140     0.005394
PD3083   PD        0.423262    0.586767    0.587481     0.005394
PD3084   PD        0.451222    0.560841    0.582943     0.005394
PD3085   PD        0.454415    0.590151    0.618584     0.005394
PD3086   PD        0.483030    0.559625    0.618557     0.005394
PD3087   PD        0.487037    0.589137    0.587865     0.005394
PD3088   PD        0.519501    0.558555    0.587552     0.005394
PD3089   PD        0.515716    0.588661    0.622131     0.005394
PD3090   PD        0.550738    0.561657    0.620286     0.005394
PD3091   PD        0.551730    0.590202    0.586977     0.005394
PD3092   PD        0.583613    0.556149    0.584891     0.005394
PD3093   PD        0.584318    0.590500    0.617702     0.005394
PD3094   PD        0.616060    0.559145    0.619938     0.005394
PD3095   PD        0.617345    0.589270    0.586326     0.005394
PD3096   PD        0.649913    0.560027    0.585673     0.005394
PD3097   PD        0.648969    0.587556    0.617519     0.005394
PD3098   PD        0.683413    0.557789    0.619727     0.005394
PD3099   PD        0.683360    0.588734    0.583654     0.005394
PD3100   PD        0.713675    0.558268    0.587336     0.005394
AU3101   AU        0.714391    0.591077    0.618907     0.007504
AU3102   AU        0.750746    0.561444    0.620948     0.007504
AU3103   AU        0.749561    0.589612    0.583112     0.007504
AU3104   AU        0.781211    0.559061    0.583955     0.007504
AU3105   AU        0.788490    0.589601    0.616856     0.007504
AU3106   AU        0.155729    0.621293    0.620743     0.007504
AU3107   AU        0.156897    0.649428    0.585179     0.007504
AU3108   AU        0.191744    0.621905    0.588300     0.007504
AU3109   AU        0.190291    0.651075    0.618626     0.007504
AU3110   AU        0.224008    0.622174    0.618866     0.007504
AU3111   AU        0.225813    0.652943    0.586713     0.007504
PD3112   PD        0.258927    0.620480    0.585995     0.005394
AU3113   AU        0.257162    0.652735    0.619319     0.007504
PD3114   PD        0.289004    0.618760    0.618293     0.005394
PD3115   PD        0.290785    0.652465    0.587342     0.005394
PD3116   PD        0.321066    0.620177    0.584776     0.005394
PD3117   PD        0.326320    0.652465    0.619074     0.005394
PD3118   PD        0.356431    0.621696    0.618982     0.005394
PD3119   PD        0.356693    0.649925    0.584579     0.005394
PD3120   PD        0.388210    0.617869    0.585301     0.005394
PD3121   PD        0.385949    0.650987    0.618601     0.005394
PD3122   PD        0.419241    0.622850    0.619949     0.005394
PD3123   PD        0.421120    0.652832    0.586725     0.005394
PD3124   PD        0.454090    0.618614    0.586034     0.005394
PD3125   PD        0.455138    0.650638    0.621260     0.005394
PD3126   PD        0.486629    0.619829    0.621467     0.005394
PD3127   PD        0.487307    0.650268    0.587753     0.005394
PD3128   PD        0.517120    0.619271    0.585843     0.005394
PD3129   PD        0.519998    0.649137    0.617393     0.005394
PD3130   PD        0.553764    0.620785    0.618212     0.005394
PD3131   PD        0.552250    0.651175    0.587091     0.005394
PD3132   PD        0.585629    0.620004    0.585214     0.005394
PD3133   PD        0.586825    0.652729    0.617502     0.005394
PD3134   PD        0.616591    0.620688    0.619733     0.005394
PD3135   PD        0.619443    0.650298    0.583815     0.005394
PD3136   PD        0.649152    0.620117    0.586368     0.005394
AU3137   AU        0.649760    0.650289    0.619672     0.007504
AU3138   AU        0.682593    0.619489    0.618780     0.007504
AU3139   AU        0.683522    0.650790    0.587031     0.007504
AU3140   AU        0.717296    0.620532    0.584937     0.007504
AU3141   AU        0.718624    0.649253    0.620951     0.007504
AU3142   AU        0.751919    0.618941    0.616378     0.007504
AU3143   AU        0.752282    0.653377    0.581405     0.007504
AU3144   AU        0.183236    0.684151    0.581477     0.007504
AU3145   AU        0.223267    0.683089    0.618453     0.007504
PD3146   PD        0.160875    0.799257    0.592973     0.005394
AU3147   AU        0.258620    0.683214    0.586775     0.007504
PD3148   PD        0.206111    0.692625    0.663198     0.005394
AU3149   AU        0.289930    0.681807    0.620002     0.007504
AU3150   AU        0.292933    0.712426    0.586817     0.007504
AU3151   AU        0.323404    0.681404    0.585167     0.007504
AU3152   AU        0.323856    0.712598    0.619283     0.007504
PD3153   PD        0.358333    0.684515    0.619200     0.005394
AU3154   AU        0.355009    0.711907    0.585923     0.007504
PD3155   PD        0.392250    0.680236    0.587647     0.005394
AU3156   AU        0.388196    0.715360    0.620178     0.007504
PD3157   PD        0.423850    0.680680    0.622038     0.005394
AU3158   AU        0.422493    0.712478    0.587013     0.007504
PD3159   PD        0.453918    0.680451    0.589683     0.005394
AU3160   AU        0.456244    0.714479    0.622273     0.007504
PD3161   PD        0.488172    0.682048    0.620142     0.005394
AU3162   AU        0.486296    0.712979    0.587960     0.007504
PD3163   PD        0.519238    0.682889    0.588093     0.005394
AU3164   AU        0.520952    0.716066    0.624437     0.007504
AU3165   AU        0.550904    0.683469    0.622758     0.007504
AU3166   AU        0.552045    0.714808    0.586646     0.007504
PD3167   PD        0.584345    0.684000    0.588849     0.005394
AU3168   AU        0.584805    0.712814    0.620503     0.007504
AU3169   AU        0.620400    0.682865    0.622521     0.007504
AU3170   AU        0.617782    0.714391    0.586823     0.007504
AU3171   AU        0.649636    0.683714    0.586363     0.007504
AU3172   AU        0.648467    0.718298    0.624006     0.007504
AU3173   AU        0.681884    0.682176    0.619281     0.007504
AU3174   AU        0.681789    0.715414    0.587227     0.007504
AU3175   AU        0.715943    0.681796    0.587304     0.007504
PD3176   PD        0.316030    0.827604    0.663582     0.005394
AU3177   AU        0.323893    0.746036    0.586180     0.007504
AU3178   AU        0.353826    0.746881    0.621800     0.007504
AU3179   AU        0.355128    0.778031    0.584326     0.007504
AU3180   AU        0.392019    0.744079    0.588852     0.007504
AU3181   AU        0.385322    0.778476    0.623277     0.007504
AU3182   AU        0.424106    0.747853    0.621505     0.007504
AU3183   AU        0.418910    0.778625    0.585670     0.007504
AU3184   AU        0.454450    0.744309    0.587341     0.007504
PD3185   PD        0.424769    0.831259    0.657823     0.005394
AU3186   AU        0.486771    0.746904    0.621165     0.007504
AU3187   AU        0.487330    0.776841    0.588715     0.007504
AU3188   AU        0.520226    0.745899    0.586242     0.007504
AU3189   AU        0.521303    0.775553    0.621635     0.007504
AU3190   AU        0.552837    0.745907    0.621904     0.007504
AU3191   AU        0.554045    0.776231    0.587665     0.007504
AU3192   AU        0.585787    0.745382    0.588552     0.007504
PD3193   PD        0.665489    0.854934    0.547321     0.005394
AU3194   AU        0.292735    0.154626    0.654342     0.007504
PD3195   PD        0.319436    0.102125    0.756628     0.005394
AU3196   AU        0.359686    0.154581    0.654170     0.007504
AU3197   AU        0.392822    0.122179    0.655063     0.007504
AU3198   AU        0.392072    0.153479    0.687293     0.007504
PD3199   PD        0.393908    0.118696    0.713739     0.005394
AU3200   AU        0.421996    0.156738    0.652408     0.007504
AU3201   AU        0.454830    0.123434    0.656296     0.007504
AU3202   AU        0.454299    0.157215    0.687853     0.007504
AU3203   AU        0.488795    0.122358    0.685838     0.007504
AU3204   AU        0.486789    0.155752    0.654037     0.007504
AU3205   AU        0.521118    0.126401    0.654204     0.007504
AU3206   AU        0.518578    0.157780    0.685933     0.007504
AU3207   AU        0.552297    0.158971    0.652280     0.007504
AU3208   AU        0.585576    0.154087    0.684042     0.007504
PD3209   PD        0.652185    0.155849    0.693506     0.005394
AU3210   AU        0.222187    0.218191    0.651351     0.007504
AU3211   AU        0.258970    0.187175    0.656083     0.007504
AU3212   AU        0.258229    0.222391    0.687064     0.007504
AU3213   AU        0.291230    0.185526    0.690464     0.007504
AU3214   AU        0.292198    0.217087    0.656061     0.007504
AU3215   AU        0.325607    0.186302    0.655693     0.007504
AU3216   AU        0.327518    0.217218    0.688127     0.007504
AU3217   AU        0.359759    0.187561    0.686121     0.007504
AU3218   AU        0.358570    0.220709    0.651258     0.007504
AU3219   AU        0.391341    0.189654    0.651653     0.007504
AU3220   AU        0.391176    0.219849    0.683201     0.007504
AU3221   AU        0.423003    0.188025    0.686085     0.007504
PD3222   PD        0.421971    0.222216    0.651703     0.005394
AU3223   AU        0.452583    0.188993    0.649975     0.007504
AU3224   AU        0.454660    0.221741    0.684276     0.007504
AU3225   AU        0.485591    0.190214    0.683593     0.007504
PD3226   PD        0.486762    0.221865    0.651391     0.005394
AU3227   AU        0.519983    0.189721    0.651218     0.007504
AU3228   AU        0.519020    0.224002    0.683734     0.007504
AU3229   AU        0.551890    0.192084    0.685617     0.007504
AU3230   AU        0.551616    0.223752    0.650822     0.007504
AU3231   AU        0.583698    0.188581    0.653719     0.007504
AU3232   AU        0.587132    0.218871    0.684748     0.007504
AU3233   AU        0.618158    0.185319    0.687820     0.007504
AU3234   AU        0.618431    0.219872    0.652158     0.007504
AU3235   AU        0.650601    0.189093    0.655285     0.007504
AU3236   AU        0.648379    0.218565    0.687479     0.007504
AU3237   AU        0.686564    0.221519    0.657180     0.007504
AU3238   AU        0.156535    0.279864    0.654109     0.007504
AU3239   AU        0.189828    0.249561    0.651153     0.007504
AU3240   AU        0.192316    0.279978    0.686484     0.007504
PD3241   PD        0.194215    0.224415    0.748880     0.005394
AU3242   AU        0.225025    0.279727    0.649948     0.007504
AU3243   AU        0.258839    0.251490    0.652530     0.007504
AU3244   AU        0.254130    0.282260    0.684302     0.007504
AU3245   AU        0.294072    0.250341    0.685152     0.007504
PD3246   PD        0.294278    0.280899    0.653580     0.005394
PD3247   PD        0.325750    0.247853    0.649084     0.005394
PD3248   PD        0.325487    0.282085    0.686259     0.005394
AU3249   AU        0.357758    0.251478    0.684286     0.007504
PD3250   PD        0.354177    0.282545    0.651029     0.005394
PD3251   PD        0.390365    0.252683    0.651691     0.005394
PD3252   PD        0.389332    0.283201    0.682691     0.005394
PD3253   PD        0.423361    0.252699    0.683153     0.005394
PD3254   PD        0.422194    0.283629    0.651502     0.005394
PD3255   PD        0.454799    0.251280    0.651098     0.005394
PD3256   PD        0.454718    0.283828    0.683785     0.005394
PD3257   PD        0.486940    0.252342    0.684793     0.005394
PD3258   PD        0.484882    0.283953    0.650461     0.005394
PD3259   PD        0.519501    0.255348    0.649708     0.005394
PD3260   PD        0.517807    0.283435    0.681517     0.005394
PD3261   PD        0.552974    0.251119    0.683557     0.005394
PD3262   PD        0.552371    0.282390    0.648239     0.005394
PD3263   PD        0.585416    0.251980    0.652675     0.005394
PD3264   PD        0.584663    0.282994    0.682028     0.005394
AU3265   AU        0.617339    0.251417    0.683891     0.007504
PD3266   PD        0.619596    0.283968    0.650367     0.005394
AU3267   AU        0.650846    0.250883    0.652296     0.007504
AU3268   AU        0.650356    0.282488    0.684130     0.007504
AU3269   AU        0.685610    0.254680    0.687026     0.007504
AU3270   AU        0.685175    0.285421    0.654937     0.007504
AU3271   AU        0.720680    0.253591    0.653410     0.007504
AU3272   AU        0.719868    0.285882    0.685982     0.007504
PD3273   PD        0.771891    0.256963    0.671024     0.005394
AU3274   AU        0.154793    0.311522    0.686969     0.007504
AU3275   AU        0.123484    0.313865    0.653676     0.007504
AU3276   AU        0.187640    0.312149    0.652007     0.007504
AU3277   AU        0.185369    0.344030    0.684183     0.007504
AU3278   AU        0.219681    0.313865    0.686618     0.007504
AU3279   AU        0.221918    0.343481    0.651160     0.007504
PD3280   PD        0.256305    0.311605    0.650216     0.005394
AU3281   AU        0.255658    0.344810    0.682730     0.007504
PD3282   PD        0.287288    0.312073    0.682063     0.005394
PD3283   PD        0.290245    0.342480    0.650962     0.005394
PD3284   PD        0.324692    0.313200    0.651709     0.005394
PD3285   PD        0.325111    0.343624    0.684167     0.005394
PD3286   PD        0.356675    0.313482    0.685370     0.005394
PD3287   PD        0.352264    0.344917    0.651127     0.005394
PD3288   PD        0.387057    0.312638    0.650546     0.005394
PD3289   PD        0.387402    0.344325    0.681131     0.005394
PD3290   PD        0.419914    0.316380    0.682580     0.005394
PD3291   PD        0.419077    0.343513    0.650375     0.005394
PD3292   PD        0.452061    0.314714    0.650042     0.005394
PD3293   PD        0.454028    0.346248    0.683192     0.005394
PD3294   PD        0.481624    0.314451    0.682305     0.005394
PD3295   PD        0.484772    0.344367    0.652410     0.005394
PD3296   PD        0.516937    0.314142    0.651292     0.005394
PD3297   PD        0.519534    0.345094    0.684420     0.005394
PD3298   PD        0.552214    0.314171    0.686564     0.005394
PD3299   PD        0.551141    0.345064    0.653488     0.005394
PD3300   PD        0.584191    0.314615    0.650427     0.005394
PD3301   PD        0.584445    0.345284    0.684176     0.005394
PD3302   PD        0.617548    0.315009    0.683259     0.005394
PD3303   PD        0.617570    0.345025    0.651569     0.005394
PD3304   PD        0.649002    0.313367    0.655825     0.005394
AU3305   AU        0.648967    0.346013    0.685082     0.007504
AU3306   AU        0.682526    0.314549    0.688512     0.007504
PD3307   PD        0.682530    0.343957    0.654593     0.005394
AU3308   AU        0.717114    0.316778    0.653586     0.007504
AU3309   AU        0.718608    0.344222    0.686605     0.007504
PD3310   PD        0.754938    0.318303    0.681858     0.005394
PD3311   PD        0.790248    0.349658    0.690923     0.005394
PD3312   PD        0.120026    0.342897    0.684644     0.005394
AU3313   AU        0.119058    0.405893    0.686584     0.007504
AU3314   AU        0.155749    0.375681    0.686312     0.007504
AU3315   AU        0.156816    0.406394    0.652703     0.007504
AU3316   AU        0.190684    0.376534    0.654882     0.007504
AU3317   AU        0.188376    0.406506    0.687671     0.007504
AU3318   AU        0.222435    0.374957    0.686835     0.007504
PD3319   PD        0.223993    0.404197    0.653573     0.005394
PD3320   PD        0.258301    0.374954    0.649788     0.005394
PD3321   PD        0.258585    0.404188    0.681643     0.005394
PD3322   PD        0.289983    0.373846    0.683837     0.005394
PD3323   PD        0.290539    0.403386    0.652000     0.005394
PD3324   PD        0.322768    0.374387    0.652889     0.005394
PD3325   PD        0.321442    0.404813    0.682509     0.005394
PD3326   PD        0.354418    0.376369    0.682154     0.005394
PD3327   PD        0.356119    0.405618    0.649750     0.005394
PD3328   PD        0.387877    0.374232    0.648187     0.005394
PD3329   PD        0.391037    0.405054    0.680609     0.005394
PD3330   PD        0.419651    0.373823    0.682853     0.005394
PD3331   PD        0.422798    0.405002    0.649215     0.005394
PD3332   PD        0.452642    0.373465    0.649775     0.005394
PD3333   PD        0.454578    0.404111    0.683483     0.005394
PD3334   PD        0.486723    0.376792    0.683313     0.005394
PD3335   PD        0.485899    0.406265    0.652515     0.005394
PD3336   PD        0.518924    0.375562    0.651863     0.005394
PD3337   PD        0.519054    0.407510    0.684398     0.005394
PD3338   PD        0.551906    0.374174    0.683950     0.005394
PD3339   PD        0.554145    0.405664    0.653020     0.005394
PD3340   PD        0.585498    0.376536    0.654558     0.005394
PD3341   PD        0.586047    0.407408    0.684536     0.005394
PD3342   PD        0.615774    0.375939    0.686715     0.005394
PD3343   PD        0.619699    0.405005    0.649869     0.005394
PD3344   PD        0.650631    0.376994    0.653944     0.005394
PD3345   PD        0.650796    0.408751    0.685905     0.005394
AU3346   AU        0.681924    0.377472    0.685723     0.007504
PD3347   PD        0.683496    0.408294    0.650314     0.005394
AU3348   AU        0.714411    0.376024    0.655887     0.007504
AU3349   AU        0.715941    0.407415    0.687789     0.007504
AU3350   AU        0.750796    0.376733    0.687130     0.007504
AU3351   AU        0.747587    0.408090    0.652871     0.007504
AU3352   AU        0.783185    0.378250    0.654863     0.007504
AU3353   AU        0.784944    0.407679    0.686504     0.007504
AU3354   AU        0.124269    0.437103    0.651832     0.007504
AU3355   AU        0.118594    0.466365    0.686957     0.007504
AU3356   AU        0.154014    0.435714    0.686314     0.007504
AU3357   AU        0.157632    0.467481    0.652314     0.007504
AU3358   AU        0.191850    0.435270    0.652604     0.007504
AU3359   AU        0.187626    0.465260    0.688480     0.007504
AU3360   AU        0.221947    0.435773    0.686639     0.007504
PD3361   PD        0.225178    0.469420    0.650629     0.005394
PD3362   PD        0.257954    0.437740    0.655079     0.005394
PD3363   PD        0.258091    0.467816    0.686526     0.005394
PD3364   PD        0.287503    0.436948    0.685004     0.005394
PD3365   PD        0.292164    0.468004    0.654059     0.005394
PD3366   PD        0.322034    0.436644    0.650511     0.005394
PD3367   PD        0.322879    0.464419    0.685836     0.005394
PD3368   PD        0.354667    0.435385    0.683030     0.005394
PD3369   PD        0.353423    0.467245    0.651861     0.005394
PD3370   PD        0.385187    0.435985    0.649438     0.005394
PD3371   PD        0.388766    0.467468    0.687919     0.005394
PD3372   PD        0.421587    0.435838    0.682269     0.005394
PD3373   PD        0.420201    0.465002    0.650700     0.005394
PD3374   PD        0.453275    0.438035    0.651373     0.005394
PD3375   PD        0.453014    0.467995    0.683531     0.005394
PD3376   PD        0.483725    0.437448    0.684639     0.005394
PD3377   PD        0.483860    0.467075    0.652303     0.005394
PD3378   PD        0.516485    0.436337    0.652549     0.005394
PD3379   PD        0.516727    0.466561    0.683120     0.005394
PD3380   PD        0.552970    0.436341    0.682675     0.005394
PD3381   PD        0.550344    0.467420    0.652307     0.005394
PD3382   PD        0.584599    0.436713    0.649267     0.005394
PD3383   PD        0.584450    0.468578    0.684593     0.005394
PD3384   PD        0.619163    0.436017    0.684565     0.005394
PD3385   PD        0.615408    0.467286    0.651163     0.005394
PD3386   PD        0.650236    0.437999    0.650484     0.005394
PD3387   PD        0.650151    0.467435    0.685598     0.005394
AU3388   AU        0.683299    0.436435    0.685131     0.007504
PD3389   PD        0.682183    0.467463    0.652927     0.005394
AU3390   AU        0.715269    0.439499    0.653903     0.007504
AU3391   AU        0.719303    0.466604    0.690029     0.007504
AU3392   AU        0.750672    0.436626    0.688857     0.007504
AU3393   AU        0.751737    0.469205    0.653342     0.007504
AU3394   AU        0.781357    0.437776    0.653603     0.007504
AU3395   AU        0.787645    0.467791    0.686401     0.007504
AU3396   AU        0.124219    0.498686    0.652515     0.007504
AU3397   AU        0.154582    0.496481    0.688264     0.007504
AU3398   AU        0.155536    0.528591    0.652921     0.007504
AU3399   AU        0.190066    0.496904    0.653193     0.007504
AU3400   AU        0.188148    0.528501    0.685057     0.007504
AU3401   AU        0.221088    0.495574    0.686202     0.007504
PD3402   PD        0.223127    0.530578    0.651233     0.005394
PD3403   PD        0.255539    0.499302    0.651885     0.005394
PD3404   PD        0.257178    0.529662    0.686656     0.005394
PD3405   PD        0.288963    0.498423    0.686469     0.005394
PD3406   PD        0.289918    0.525834    0.649908     0.005394
PD3407   PD        0.325122    0.499026    0.653808     0.005394
PD3408   PD        0.319138    0.531766    0.686740     0.005394
PD3409   PD        0.350594    0.497128    0.682686     0.005394
PD3410   PD        0.355287    0.529190    0.653701     0.005394
PD3411   PD        0.387243    0.497287    0.651788     0.005394
PD3412   PD        0.386491    0.526622    0.684626     0.005394
PD3413   PD        0.419698    0.498549    0.684718     0.005394
PD3414   PD        0.421481    0.528270    0.653098     0.005394
PD3415   PD        0.451676    0.497266    0.651575     0.005394
PD3416   PD        0.455164    0.529637    0.680681     0.005394
PD3417   PD        0.485633    0.497044    0.683401     0.005394
PD3418   PD        0.486497    0.527889    0.650064     0.005394
PD3419   PD        0.520343    0.496668    0.650795     0.005394
PD3420   PD        0.516851    0.531467    0.685397     0.005394
PD3421   PD        0.549693    0.498398    0.683203     0.005394
PD3422   PD        0.550973    0.527088    0.652974     0.005394
PD3423   PD        0.583840    0.498115    0.649726     0.005394
PD3424   PD        0.585746    0.525425    0.683049     0.005394
PD3425   PD        0.618201    0.497172    0.687880     0.005394
PD3426   PD        0.616886    0.529169    0.649769     0.005394
PD3427   PD        0.649735    0.498558    0.650010     0.005394
AU3428   AU        0.650137    0.529944    0.686214     0.007504
AU3429   AU        0.683355    0.496736    0.685701     0.007504
AU3430   AU        0.681011    0.528423    0.651300     0.007504
AU3431   AU        0.717183    0.499143    0.655517     0.007504
AU3432   AU        0.717213    0.528087    0.686181     0.007504
AU3433   AU        0.752471    0.499602    0.687385     0.007504
AU3434   AU        0.750877    0.528574    0.653962     0.007504
AU3435   AU        0.785595    0.498449    0.653302     0.007504
AU3436   AU        0.153942    0.561244    0.687406     0.007504
AU3437   AU        0.154225    0.589996    0.651814     0.007504
AU3438   AU        0.187155    0.559836    0.653211     0.007504
AU3439   AU        0.188355    0.590329    0.687547     0.007504
AU3440   AU        0.222220    0.558946    0.686306     0.007504
AU3441   AU        0.224295    0.587538    0.650370     0.007504
PD3442   PD        0.256854    0.559195    0.652910     0.005394
AU3443   AU        0.257818    0.588348    0.686546     0.007504
PD3444   PD        0.291664    0.556325    0.685907     0.005394
PD3445   PD        0.290013    0.591294    0.650272     0.005394
PD3446   PD        0.321019    0.559286    0.651105     0.005394
PD3447   PD        0.322038    0.588707    0.683065     0.005394
PD3448   PD        0.356492    0.561027    0.684776     0.005394
PD3449   PD        0.353763    0.588387    0.649489     0.005394
PD3450   PD        0.387030    0.557212    0.649179     0.005394
PD3451   PD        0.384222    0.585314    0.685501     0.005394
PD3452   PD        0.419188    0.558054    0.683882     0.005394
PD3453   PD        0.417967    0.586512    0.652109     0.005394
PD3454   PD        0.453072    0.559144    0.650777     0.005394
PD3455   PD        0.452870    0.591637    0.686612     0.005394
PD3456   PD        0.486251    0.561534    0.684136     0.005394
PD3457   PD        0.489150    0.589275    0.651126     0.005394
PD3458   PD        0.519432    0.560511    0.650915     0.005394
PD3459   PD        0.521688    0.588901    0.685982     0.005394
PD3460   PD        0.551636    0.556857    0.682741     0.005394
PD3461   PD        0.552787    0.590755    0.653536     0.005394
PD3462   PD        0.582614    0.557647    0.651969     0.005394
PD3463   PD        0.581458    0.591047    0.688387     0.005394
PD3464   PD        0.614095    0.558959    0.686913     0.005394
PD3465   PD        0.615857    0.589461    0.653019     0.005394
PD3466   PD        0.650075    0.558442    0.651470     0.005394
AU3467   AU        0.651525    0.589780    0.687692     0.007504
AU3468   AU        0.685321    0.558247    0.687618     0.007504
AU3469   AU        0.684409    0.589559    0.654051     0.007504
AU3470   AU        0.716481    0.558344    0.651617     0.007504
AU3471   AU        0.719593    0.589177    0.686976     0.007504
AU3472   AU        0.753505    0.557374    0.685192     0.007504
AU3473   AU        0.750135    0.590725    0.650458     0.007504
AU3474   AU        0.189769    0.620800    0.652242     0.007504
AU3475   AU        0.224835    0.618283    0.685654     0.007504
AU3476   AU        0.224557    0.652202    0.652130     0.007504
AU3477   AU        0.257945    0.623028    0.650298     0.007504
AU3478   AU        0.258714    0.651689    0.682877     0.007504
AU3479   AU        0.288341    0.620805    0.686660     0.007504
AU3480   AU        0.291344    0.650749    0.652857     0.007504
PD3481   PD        0.325099    0.619244    0.648664     0.005394
AU3482   AU        0.320848    0.654255    0.689131     0.007504
PD3483   PD        0.353143    0.620715    0.686064     0.005394
PD3484   PD        0.356972    0.650359    0.653360     0.005394
PD3485   PD        0.391275    0.618747    0.654271     0.005394
AU3486   AU        0.389208    0.652027    0.687012     0.007504
PD3487   PD        0.422396    0.619980    0.683848     0.005394
PD3488   PD        0.423722    0.650831    0.654315     0.005394
PD3489   PD        0.455817    0.621511    0.653551     0.005394
PD3490   PD        0.453228    0.650144    0.687541     0.005394
PD3491   PD        0.490107    0.621543    0.688494     0.005394
PD3492   PD        0.487293    0.651214    0.654584     0.005394
PD3493   PD        0.521027    0.620408    0.653546     0.005394
AU3494   AU        0.519842    0.651359    0.688120     0.007504
AU3495   AU        0.551989    0.619934    0.688367     0.007504
AU3496   AU        0.552977    0.651126    0.650797     0.007504
PD3497   PD        0.582665    0.620594    0.651202     0.005394
AU3498   AU        0.584816    0.648947    0.686040     0.007504
AU3499   AU        0.617943    0.619202    0.687592     0.007504
AU3500   AU        0.616072    0.648865    0.652980     0.007504
AU3501   AU        0.648995    0.618226    0.651530     0.007504
AU3502   AU        0.650630    0.649965    0.685032     0.007504
AU3503   AU        0.684617    0.619516    0.690465     0.007504
AU3504   AU        0.681652    0.649097    0.651733     0.007504
AU3505   AU        0.716594    0.620874    0.653909     0.007504
AU3506   AU        0.253816    0.684726    0.652547     0.007504
AU3507   AU        0.289992    0.685510    0.683801     0.007504
AU3508   AU        0.289239    0.713774    0.648992     0.007504
AU3509   AU        0.323692    0.682891    0.650867     0.007504
AU3510   AU        0.322380    0.715106    0.682784     0.007504
AU3511   AU        0.356319    0.682477    0.686358     0.007504
AU3512   AU        0.356921    0.715290    0.654057     0.007504
AU3513   AU        0.391264    0.683154    0.652529     0.007504
AU3514   AU        0.354474    0.720857    0.715047     0.007504
AU3515   AU        0.420620    0.684399    0.687805     0.007504
AU3516   AU        0.423270    0.715260    0.656181     0.007504
AU3517   AU        0.453551    0.683054    0.653699     0.007504
AU3518   AU        0.453668    0.715763    0.687936     0.007504
AU3519   AU        0.486427    0.681979    0.686214     0.007504
AU3520   AU        0.487715    0.713816    0.654485     0.007504
AU3521   AU        0.520419    0.682253    0.655132     0.007504
AU3522   AU        0.520713    0.716031    0.686967     0.007504
AU3523   AU        0.554147    0.681582    0.686925     0.007504
AU3524   AU        0.554748    0.715203    0.657056     0.007504
AU3525   AU        0.585925    0.682493    0.651294     0.007504
AU3526   AU        0.558583    0.717823    0.710815     0.007504
AU3527   AU        0.616979    0.681636    0.685757     0.007504
PD3528   PD        0.591803    0.716461    0.680603     0.005394
AU3529   AU        0.650879    0.681599    0.653721     0.007504
AU3530   AU        0.391812    0.746565    0.658014     0.007504
AU3531   AU        0.422957    0.747980    0.691832     0.007504
AU3532   AU        0.457000    0.746564    0.654239     0.007504
AU3533   AU        0.487989    0.747779    0.687952     0.007504
AU3534   AU        0.521226    0.746864    0.656146     0.007504
AU3535   AU        0.423429    0.156130    0.720984     0.007504
AU3536   AU        0.486785    0.156330    0.721239     0.007504
AU3537   AU        0.295103    0.218590    0.719569     0.007504
AU3538   AU        0.328190    0.186106    0.720422     0.007504
AU3539   AU        0.326308    0.222017    0.753066     0.007504
AU3540   AU        0.358422    0.218613    0.719749     0.007504
AU3541   AU        0.392045    0.188928    0.720152     0.007504
AU3542   AU        0.391089    0.218411    0.753161     0.007504
AU3543   AU        0.422495    0.185241    0.754891     0.007504
AU3544   AU        0.423324    0.219670    0.717748     0.007504
AU3545   AU        0.456609    0.187904    0.721606     0.007504
AU3546   AU        0.455648    0.216755    0.753932     0.007504
AU3547   AU        0.490752    0.186170    0.754674     0.007504
AU3548   AU        0.485803    0.219481    0.717505     0.007504
AU3549   AU        0.518051    0.191374    0.716046     0.007504
AU3550   AU        0.522328    0.219534    0.753002     0.007504
AU3551   AU        0.552632    0.221628    0.717666     0.007504
PD3552   PD        0.612747    0.133731    0.712573     0.005394
AU3553   AU        0.586644    0.225567    0.755824     0.007504
PD3554   PD        0.658994    0.134129    0.735107     0.005394
AU3555   AU        0.220672    0.282472    0.725927     0.007504
PD3556   PD        0.192476    0.220171    0.688429     0.005394
AU3557   AU        0.259521    0.283428    0.753126     0.007504
AU3558   AU        0.290384    0.250924    0.750279     0.007504
AU3559   AU        0.291855    0.283130    0.717068     0.007504
AU3560   AU        0.324860    0.251324    0.719585     0.007504
AU3561   AU        0.325254    0.280537    0.752336     0.007504
AU3562   AU        0.361507    0.251488    0.753459     0.007504
AU3563   AU        0.359945    0.282155    0.718016     0.007504
AU3564   AU        0.391954    0.251016    0.717708     0.007504
AU3565   AU        0.392574    0.282072    0.750211     0.007504
AU3566   AU        0.423929    0.248257    0.752598     0.007504
PD3567   PD        0.423796    0.283734    0.715910     0.005394
AU3568   AU        0.453658    0.252368    0.717785     0.007504
AU3569   AU        0.454610    0.282449    0.749902     0.007504
AU3570   AU        0.487505    0.248662    0.753123     0.007504
PD3571   PD        0.486113    0.284063    0.716577     0.005394
AU3572   AU        0.518465    0.252415    0.716121     0.007504
AU3573   AU        0.518304    0.282008    0.749384     0.007504
AU3574   AU        0.551536    0.253189    0.750234     0.007504
AU3575   AU        0.550845    0.282491    0.715677     0.007504
AU3576   AU        0.585228    0.251560    0.718750     0.007504
AU3577   AU        0.584347    0.283567    0.752047     0.007504
AU3578   AU        0.619745    0.252052    0.750404     0.007504
AU3579   AU        0.617982    0.284175    0.718645     0.007504
AU3580   AU        0.652223    0.253244    0.718946     0.007504
AU3581   AU        0.651307    0.283446    0.754113     0.007504
AU3582   AU        0.687801    0.284760    0.722841     0.007504
AU3583   AU        0.186781    0.313334    0.722729     0.007504
AU3584   AU        0.223505    0.313339    0.755966     0.007504
AU3585   AU        0.222526    0.342666    0.719971     0.007504
AU3586   AU        0.256260    0.311860    0.716470     0.007504
AU3587   AU        0.257189    0.343326    0.752011     0.007504
AU3588   AU        0.292798    0.313333    0.749941     0.007504
AU3589   AU        0.289680    0.344594    0.715193     0.007504
AU3590   AU        0.323418    0.313725    0.716550     0.007504
AU3591   AU        0.325362    0.342082    0.751301     0.007504
AU3592   AU        0.359274    0.312817    0.749691     0.007504
PD3593   PD        0.360160    0.343914    0.716349     0.005394
PD3594   PD        0.393273    0.314587    0.715487     0.005394
AU3595   AU        0.390503    0.343275    0.750726     0.007504
AU3596   AU        0.423463    0.313831    0.750258     0.007504
PD3597   PD        0.423503    0.345710    0.716500     0.005394
PD3598   PD        0.453296    0.315257    0.715077     0.005394
AU3599   AU        0.456031    0.345139    0.749108     0.007504
AU3600   AU        0.487226    0.313976    0.748225     0.007504
PD3601   PD        0.487969    0.345317    0.715563     0.005394
PD3602   PD        0.519501    0.313962    0.715821     0.005394
AU3603   AU        0.520163    0.343743    0.749728     0.007504
AU3604   AU        0.551859    0.311834    0.751496     0.007504
PD3605   PD        0.552457    0.345858    0.716526     0.005394
AU3606   AU        0.585737    0.315485    0.717476     0.007504
AU3607   AU        0.584372    0.346073    0.750301     0.007504
AU3608   AU        0.617975    0.314001    0.751017     0.007504
PD3609   PD        0.621909    0.347227    0.719241     0.005394
AU3610   AU        0.652398    0.313336    0.720696     0.007504
AU3611   AU        0.652478    0.346724    0.753494     0.007504
AU3612   AU        0.687047    0.317192    0.751991     0.007504
AU3613   AU        0.683681    0.346940    0.717511     0.007504
PD3614   PD        0.765484    0.285030    0.712108     0.005394
AU3615   AU        0.153793    0.406355    0.721290     0.007504
AU3616   AU        0.188610    0.374058    0.718665     0.007504
AU3617   AU        0.188766    0.404509    0.752681     0.007504
AU3618   AU        0.222700    0.373613    0.752467     0.007504
AU3619   AU        0.222648    0.404016    0.719293     0.007504
AU3620   AU        0.256969    0.375733    0.717047     0.007504
AU3621   AU        0.255622    0.403210    0.750647     0.007504
AU3622   AU        0.289860    0.372076    0.750026     0.007504
AU3623   AU        0.291182    0.402170    0.718027     0.007504
PD3624   PD        0.325518    0.373363    0.714884     0.005394
AU3625   AU        0.323681    0.403805    0.749544     0.007504
AU3626   AU        0.358333    0.372447    0.749951     0.007504
PD3627   PD        0.356168    0.405296    0.713420     0.005394
PD3628   PD        0.390530    0.373950    0.716265     0.005394
PD3629   PD        0.388651    0.405412    0.748233     0.005394
PD3630   PD        0.420700    0.375995    0.751284     0.005394
PD3631   PD        0.421198    0.402448    0.715991     0.005394
PD3632   PD        0.455958    0.374458    0.717563     0.005394
PD3633   PD        0.455594    0.406442    0.752464     0.005394
PD3634   PD        0.487770    0.376846    0.752276     0.005394
PD3635   PD        0.485076    0.404681    0.714887     0.005394
PD3636   PD        0.518080    0.375134    0.716473     0.005394
PD3637   PD        0.518782    0.408403    0.751739     0.005394
PD3638   PD        0.549739    0.377582    0.749691     0.005394
PD3639   PD        0.550906    0.409793    0.719007     0.005394
PD3640   PD        0.584389    0.376209    0.717229     0.005394
AU3641   AU        0.583134    0.405486    0.750133     0.007504
AU3642   AU        0.618414    0.376508    0.752555     0.007504
PD3643   PD        0.616735    0.408637    0.718503     0.005394
AU3644   AU        0.650335    0.379227    0.720730     0.007504
AU3645   AU        0.652825    0.406690    0.755114     0.007504
AU3646   AU        0.688076    0.374098    0.753986     0.007504
AU3647   AU        0.685837    0.407475    0.721894     0.007504
PD3648   PD        0.736793    0.362776    0.762948     0.005394
AU3649   AU        0.721997    0.408779    0.757796     0.007504
AU3650   AU        0.752888    0.406715    0.720765     0.007504
AU3651   AU        0.153165    0.466340    0.720980     0.007504
AU3652   AU        0.189657    0.435288    0.722242     0.007504
AU3653   AU        0.186865    0.464995    0.753457     0.007504
AU3654   AU        0.224751    0.434902    0.751497     0.007504
AU3655   AU        0.224005    0.465670    0.719501     0.007504
AU3656   AU        0.256556    0.434762    0.716241     0.007504
AU3657   AU        0.257530    0.465276    0.753623     0.007504
AU3658   AU        0.290182    0.434212    0.748899     0.007504
AU3659   AU        0.289926    0.466312    0.717497     0.007504
PD3660   PD        0.321106    0.434344    0.716771     0.005394
AU3661   AU        0.321841    0.466591    0.750914     0.007504
PD3662   PD        0.355105    0.433560    0.747190     0.005394
PD3663   PD        0.353416    0.466093    0.714346     0.005394
PD3664   PD        0.390868    0.433916    0.714915     0.005394
PD3665   PD        0.386407    0.467445    0.749916     0.005394
PD3666   PD        0.420472    0.434354    0.747057     0.005394
PD3667   PD        0.420711    0.468243    0.715585     0.005394
PD3668   PD        0.451651    0.437504    0.715560     0.005394
PD3669   PD        0.452707    0.466749    0.752612     0.005394
PD3670   PD        0.481771    0.435140    0.750492     0.005394
PD3671   PD        0.485775    0.468686    0.722121     0.005394
PD3672   PD        0.518109    0.435869    0.716418     0.005394
PD3673   PD        0.519392    0.467472    0.750927     0.005394
PD3674   PD        0.552738    0.437712    0.750450     0.005394
PD3675   PD        0.549079    0.466657    0.717381     0.005394
PD3676   PD        0.584965    0.435620    0.715704     0.005394
AU3677   AU        0.584641    0.468030    0.750822     0.007504
AU3678   AU        0.616828    0.438033    0.753560     0.007504
PD3679   PD        0.619582    0.466362    0.719706     0.005394
AU3680   AU        0.654169    0.437855    0.721000     0.007504
AU3681   AU        0.651466    0.468344    0.756123     0.007504
AU3682   AU        0.687001    0.436248    0.756212     0.007504
AU3683   AU        0.686572    0.466901    0.722798     0.007504
AU3684   AU        0.720159    0.436939    0.721333     0.007504
AU3685   AU        0.722468    0.466078    0.754188     0.007504
AU3686   AU        0.758176    0.468740    0.720842     0.007504
AU3687   AU        0.187389    0.495338    0.721148     0.007504
AU3688   AU        0.223980    0.493814    0.753819     0.007504
AU3689   AU        0.223351    0.528009    0.716115     0.007504
AU3690   AU        0.255252    0.497660    0.717640     0.007504
AU3691   AU        0.253380    0.527011    0.753907     0.007504
AU3692   AU        0.288278    0.499779    0.750125     0.007504
PD3693   PD        0.285176    0.531481    0.720376     0.005394
PD3694   PD        0.323909    0.497873    0.717855     0.005394
AU3695   AU        0.323486    0.528291    0.751377     0.007504
AU3696   AU        0.353120    0.497427    0.750515     0.007504
PD3697   PD        0.356418    0.528299    0.715644     0.005394
PD3698   PD        0.385178    0.496162    0.718068     0.005394
PD3699   PD        0.388170    0.526379    0.751578     0.005394
PD3700   PD        0.421795    0.499264    0.752766     0.005394
PD3701   PD        0.421465    0.528193    0.714990     0.005394
PD3702   PD        0.451280    0.500182    0.717268     0.005394
AU3703   AU        0.455379    0.529663    0.753372     0.007504
PD3704   PD        0.485873    0.497760    0.748781     0.005394
PD3705   PD        0.485730    0.530807    0.717205     0.005394
PD3706   PD        0.518455    0.498189    0.715197     0.005394
PD3707   PD        0.517118    0.529939    0.753161     0.005394
AU3708   AU        0.551604    0.498208    0.749865     0.007504
PD3709   PD        0.550120    0.528596    0.716457     0.005394
PD3710   PD        0.580654    0.495653    0.717115     0.005394
AU3711   AU        0.585714    0.527370    0.751965     0.007504
AU3712   AU        0.617196    0.497104    0.753199     0.007504
AU3713   AU        0.617419    0.529290    0.718362     0.007504
AU3714   AU        0.651562    0.497747    0.720262     0.007504
AU3715   AU        0.652809    0.528078    0.753491     0.007504
AU3716   AU        0.684798    0.497087    0.756787     0.007504
AU3717   AU        0.686640    0.527735    0.720765     0.007504
AU3718   AU        0.720833    0.498029    0.723406     0.007504
AU3719   AU        0.188228    0.556755    0.722085     0.007504
AU3720   AU        0.223505    0.559604    0.755986     0.007504
AU3721   AU        0.226319    0.591100    0.722368     0.007504
AU3722   AU        0.256914    0.590783    0.759269     0.007504
PD3723   PD        0.224347    0.659855    0.787626     0.005394
AU3724   AU        0.289033    0.558779    0.754210     0.007504
AU3725   AU        0.286851    0.592512    0.722515     0.007504
AU3726   AU        0.322286    0.559034    0.719765     0.007504
AU3727   AU        0.321914    0.589910    0.752255     0.007504
AU3728   AU        0.355439    0.559878    0.752727     0.007504
AU3729   AU        0.355918    0.591845    0.719251     0.007504
PD3730   PD        0.387484    0.556145    0.719867     0.005394
AU3731   AU        0.387390    0.590347    0.753143     0.007504
AU3732   AU        0.418913    0.557621    0.751146     0.007504
PD3733   PD        0.419956    0.588300    0.715812     0.005394
PD3734   PD        0.452134    0.558590    0.715680     0.005394
AU3735   AU        0.455125    0.588361    0.755019     0.007504
AU3736   AU        0.488001    0.560218    0.752984     0.007504
PD3737   PD        0.485203    0.587865    0.716878     0.005394
PD3738   PD        0.518739    0.559098    0.719711     0.005394
AU3739   AU        0.519543    0.590489    0.754809     0.007504
AU3740   AU        0.554416    0.558066    0.753121     0.007504
AU3741   AU        0.550499    0.588933    0.720657     0.007504
AU3742   AU        0.582915    0.558401    0.718889     0.007504
AU3743   AU        0.585692    0.589776    0.754434     0.007504
AU3744   AU        0.620780    0.558148    0.756024     0.007504
AU3745   AU        0.616416    0.588337    0.721717     0.007504
AU3746   AU        0.652378    0.558626    0.721566     0.007504
AU3747   AU        0.651058    0.591253    0.752568     0.007504
AU3748   AU        0.685878    0.558695    0.755070     0.007504
AU3749   AU        0.684797    0.588972    0.719724     0.007504
AU3750   AU        0.721013    0.556527    0.719394     0.007504
PD3751   PD        0.223772    0.626083    0.748517     0.005394
AU3752   AU        0.289315    0.619547    0.756849     0.007504
PD3753   PD        0.281070    0.662604    0.725194     0.005394
AU3754   AU        0.321854    0.620838    0.717999     0.007504
AU3755   AU        0.320823    0.649463    0.751810     0.007504
AU3756   AU        0.356767    0.622209    0.753380     0.007504
AU3757   AU        0.357051    0.653389    0.719184     0.007504
AU3758   AU        0.390214    0.621393    0.719499     0.007504
AU3759   AU        0.388851    0.652230    0.756376     0.007504
AU3760   AU        0.419682    0.619962    0.753237     0.007504
AU3761   AU        0.420085    0.652280    0.721225     0.007504
AU3762   AU        0.453106    0.619818    0.721561     0.007504
AU3763   AU        0.453967    0.651122    0.754765     0.007504
AU3764   AU        0.486670    0.620055    0.753361     0.007504
AU3765   AU        0.486214    0.651743    0.721325     0.007504
AU3766   AU        0.518856    0.620195    0.721068     0.007504
AU3767   AU        0.519025    0.652514    0.753855     0.007504
AU3768   AU        0.551290    0.621512    0.755389     0.007504
AU3769   AU        0.553399    0.651494    0.721113     0.007504
AU3770   AU        0.585489    0.620637    0.721420     0.007504
AU3771   AU        0.586708    0.650781    0.756418     0.007504
AU3772   AU        0.618203    0.619933    0.754736     0.007504
AU3773   AU        0.619875    0.652504    0.720546     0.007504
AU3774   AU        0.651117    0.621613    0.722286     0.007504
AU3775   AU        0.325924    0.686636    0.721706     0.007504
AU3776   AU        0.387571    0.682901    0.721022     0.007504
AU3777   AU        0.421068    0.683231    0.755450     0.007504
AU3778   AU        0.421427    0.714245    0.722816     0.007504
AU3779   AU        0.454804    0.683014    0.720952     0.007504
AU3780   AU        0.485998    0.683280    0.753649     0.007504
AU3781   AU        0.488133    0.714440    0.719489     0.007504
AU3782   AU        0.519923    0.683392    0.721626     0.007504
AU3783   AU        0.585517    0.681485    0.721859     0.007504
AU3784   AU        0.425538    0.215578    0.788766     0.007504
AU3785   AU        0.487566    0.217890    0.786919     0.007504
AU3786   AU        0.320556    0.251833    0.786704     0.007504
AU3787   AU        0.358300    0.281289    0.785572     0.007504
AU3788   AU        0.392707    0.247509    0.788712     0.007504
AU3789   AU        0.390942    0.278619    0.821644     0.007504
AU3790   AU        0.420701    0.281768    0.786361     0.007504
AU3791   AU        0.453347    0.248155    0.786596     0.007504
AU3792   AU        0.456367    0.282057    0.817402     0.007504
AU3793   AU        0.487552    0.283185    0.785375     0.007504
AU3794   AU        0.521026    0.249050    0.785287     0.007504
AU3795   AU        0.519982    0.280490    0.819959     0.007504
AU3796   AU        0.550430    0.281428    0.785235     0.007504
AU3797   AU        0.616769    0.280380    0.787021     0.007504
AU3798   AU        0.290289    0.341080    0.785176     0.007504
AU3799   AU        0.323949    0.309580    0.786099     0.007504
AU3800   AU        0.320543    0.342923    0.819533     0.007504
AU3801   AU        0.359918    0.311046    0.819599     0.007504
AU3802   AU        0.356654    0.341727    0.786827     0.007504
AU3803   AU        0.390240    0.314045    0.785818     0.007504
AU3804   AU        0.389754    0.344033    0.820689     0.007504
AU3805   AU        0.419633    0.311808    0.820548     0.007504
AU3806   AU        0.423410    0.344328    0.784914     0.007504
AU3807   AU        0.454872    0.314912    0.784361     0.007504
AU3808   AU        0.454047    0.343335    0.820654     0.007504
AU3809   AU        0.489323    0.314503    0.820810     0.007504
AU3810   AU        0.486272    0.344835    0.785214     0.007504
AU3811   AU        0.519386    0.314461    0.783549     0.007504
AU3812   AU        0.519786    0.344425    0.822725     0.007504
AU3813   AU        0.552495    0.313008    0.818820     0.007504
AU3814   AU        0.551126    0.344961    0.784013     0.007504
AU3815   AU        0.585578    0.314775    0.782520     0.007504
AU3816   AU        0.586600    0.343808    0.818069     0.007504
AU3817   AU        0.619949    0.344477    0.785188     0.007504
AU3818   AU        0.219599    0.403837    0.788570     0.007504
AU3819   AU        0.255507    0.371394    0.785604     0.007504
AU3820   AU        0.285032    0.374630    0.820689     0.007504
AU3821   AU        0.289375    0.403085    0.781268     0.007504
AU3822   AU        0.326010    0.373850    0.786251     0.007504
AU3823   AU        0.320010    0.404985    0.819625     0.007504
AU3824   AU        0.355564    0.374332    0.820904     0.007504
AU3825   AU        0.355895    0.404872    0.782563     0.007504
AU3826   AU        0.387942    0.373303    0.787236     0.007504
AU3827   AU        0.385992    0.402356    0.820949     0.007504
AU3828   AU        0.422257    0.373537    0.821345     0.007504
AU3829   AU        0.418020    0.404704    0.783954     0.007504
AU3830   AU        0.454203    0.376982    0.784459     0.007504
AU3831   AU        0.452605    0.404211    0.820834     0.007504
AU3832   AU        0.486064    0.373347    0.820218     0.007504
AU3833   AU        0.486369    0.406276    0.784762     0.007504
AU3834   AU        0.519153    0.375468    0.783079     0.007504
AU3835   AU        0.517648    0.403996    0.819027     0.007504
AU3836   AU        0.552103    0.375550    0.817319     0.007504
AU3837   AU        0.550651    0.407139    0.787581     0.007504
AU3838   AU        0.585202    0.376411    0.784151     0.007504
AU3839   AU        0.584525    0.407202    0.823629     0.007504
AU3840   AU        0.616827    0.375460    0.818227     0.007504
AU3841   AU        0.615791    0.407258    0.785851     0.007504
AU3842   AU        0.652212    0.374246    0.786251     0.007504
AU3843   AU        0.685025    0.403155    0.788279     0.007504
AU3844   AU        0.221552    0.462617    0.787138     0.007504
AU3845   AU        0.254989    0.433281    0.784633     0.007504
AU3846   AU        0.288631    0.437019    0.820721     0.007504
AU3847   AU        0.291956    0.464719    0.783796     0.007504
AU3848   AU        0.323457    0.433261    0.781951     0.007504
AU3849   AU        0.323734    0.465695    0.820714     0.007504
AU3850   AU        0.353969    0.433744    0.820033     0.007504
AU3851   AU        0.352865    0.465668    0.785578     0.007504
AU3852   AU        0.386319    0.435254    0.783152     0.007504
AU3853   AU        0.385000    0.466601    0.818106     0.007504
AU3854   AU        0.419731    0.434044    0.819806     0.007504
AU3855   AU        0.418166    0.466726    0.785692     0.007504
AU3856   AU        0.452639    0.435661    0.786538     0.007504
AU3857   AU        0.451310    0.465661    0.819767     0.007504
AU3858   AU        0.484893    0.436542    0.821310     0.007504
AU3859   AU        0.485476    0.467611    0.784844     0.007504
AU3860   AU        0.518244    0.437838    0.783937     0.007504
AU3861   AU        0.520412    0.469156    0.820464     0.007504
AU3862   AU        0.550173    0.437986    0.819004     0.007504
AU3863   AU        0.551034    0.466541    0.783777     0.007504
AU3864   AU        0.584900    0.435830    0.788131     0.007504
AU3865   AU        0.583642    0.467485    0.823638     0.007504
AU3866   AU        0.620741    0.432380    0.822520     0.007504
AU3867   AU        0.616145    0.468046    0.789341     0.007504
AU3868   AU        0.651791    0.438083    0.787486     0.007504
AU3869   AU        0.689009    0.465560    0.788261     0.007504
AU3870   AU        0.254928    0.495289    0.788127     0.007504
AU3871   AU        0.289008    0.493949    0.819712     0.007504
AU3872   AU        0.287246    0.527529    0.786645     0.007504
AU3873   AU        0.322357    0.496336    0.785882     0.007504
AU3874   AU        0.320257    0.526730    0.822427     0.007504
AU3875   AU        0.356793    0.498521    0.821317     0.007504
AU3876   AU        0.353287    0.527629    0.786649     0.007504
AU3877   AU        0.386093    0.497714    0.783319     0.007504
PD3878   PD        0.404851    0.569946    0.869239     0.005394
AU3879   AU        0.419029    0.495581    0.820473     0.007504
AU3880   AU        0.420200    0.526528    0.786970     0.007504
AU3881   AU        0.453031    0.498050    0.787063     0.007504
AU3882   AU        0.451958    0.526840    0.823862     0.007504
AU3883   AU        0.484604    0.495611    0.820709     0.007504
AU3884   AU        0.484916    0.528279    0.788518     0.007504
AU3885   AU        0.516148    0.497622    0.783646     0.007504
AU3886   AU        0.517135    0.528017    0.821870     0.007504
AU3887   AU        0.551018    0.498757    0.820030     0.007504
AU3888   AU        0.550233    0.527799    0.784723     0.007504
AU3889   AU        0.582876    0.497715    0.787334     0.007504
AU3890   AU        0.586401    0.526362    0.820973     0.007504
AU3891   AU        0.618425    0.495234    0.825033     0.007504
AU3892   AU        0.619788    0.526596    0.788128     0.007504
AU3893   AU        0.651214    0.496235    0.790472     0.007504
AU3894   AU        0.288511    0.591504    0.791324     0.007504
AU3895   AU        0.320600    0.559027    0.788904     0.007504
PD3896   PD        0.358389    0.555522    0.828884     0.005394
AU3897   AU        0.355147    0.588108    0.787310     0.007504
AU3898   AU        0.387603    0.557082    0.785438     0.007504
PD3899   PD        0.379883    0.576341    0.901956     0.005394
AU3900   AU        0.416884    0.559048    0.821074     0.007504
AU3901   AU        0.420845    0.589002    0.785598     0.007504
AU3902   AU        0.451735    0.556637    0.789068     0.007504
AU3903   AU        0.449499    0.589928    0.823440     0.007504
AU3904   AU        0.481567    0.559331    0.824649     0.007504
AU3905   AU        0.485971    0.588422    0.790100     0.007504
AU3906   AU        0.517717    0.558106    0.788994     0.007504
PD3907   PD        0.480061    0.597192    0.910230     0.005394
AU3908   AU        0.552696    0.558661    0.822222     0.007504
AU3909   AU        0.552750    0.589181    0.789331     0.007504
AU3910   AU        0.587000    0.558246    0.787203     0.007504
AU3911   AU        0.621704    0.587104    0.788656     0.007504
AU3912   AU        0.389522    0.621872    0.787551     0.007504
AU3913   AU        0.423395    0.652546    0.790014     0.007504
AU3914   AU        0.455159    0.621512    0.787290     0.007504
AU3915   AU        0.487287    0.650073    0.788966     0.007504
AU3916   AU        0.518343    0.618944    0.790493     0.007504
AU3917   AU        0.421472    0.405089    0.854775     0.007504
AU3918   AU        0.454458    0.373893    0.854792     0.007504
AU3919   AU        0.488321    0.403497    0.852509     0.007504
AU3920   AU        0.387424    0.436835    0.855133     0.007504
AU3921   AU        0.418726    0.527230    0.852684     0.007504
AU3922   AU        0.452987    0.435511    0.856272     0.007504
AU3923   AU        0.486633    0.466124    0.856519     0.007504
AU3924   AU        0.518751    0.436255    0.851595     0.007504
AU3925   AU        0.453313    0.496133    0.855140     0.007504
