data_00001
_audit_creation_method   'DISCUS'

_data_chemical_name_common 'Au.cell: Pearson 85'

_cell_length_a             57.1046
_cell_length_b             57.1046
_cell_length_c             57.1046
_cell_angle_alpha     90.0000
_cell_angle_beta      90.0000
_cell_angle_gamma     90.0000

_symmetry_space_group_name_H-M   'P1              '

loop_
_atom_site_label
_atom_site_symbol
_atom_site_fract_x
_atom_site_fract_y
_atom_site_fract_z
_atom_site_u_iso_or_equiv
NI1   NI        0.386666    0.283060    0.032303     0.004307
NI2   NI        0.441123    0.268587    0.081031     0.004307
NI3   NI        0.527471    0.234719    0.083797     0.004307
NI4   NI        0.333791    0.340497    0.029405     0.004307
NI5   NI        0.341478    0.297554    0.057791     0.004307
NI6   NI        0.371710    0.332878    0.052823     0.004307
NI7   NI        0.412187    0.394065    0.000714     0.004307
AU8   AU        0.452760    0.387397    0.043299     0.007504
NI9   NI        0.441776    0.309920    0.055087     0.004307
NI10   NI        0.523670    0.369795    0.015181     0.004307
NI11   NI        0.558959    0.304140    0.049754     0.004307
NI12   NI        0.579089    0.358975    0.031709     0.004307
NI13   NI        0.240217    0.384855    0.085962     0.004307
NI14   NI        0.283928    0.409304    0.039559     0.004307
NI15   NI        0.328463    0.385270    0.040819     0.004307
NI16   NI        0.333067    0.439823    0.037081     0.004307
NI17   NI        0.400609    0.424955    0.029798     0.004307
NI18   NI        0.393911    0.380584    0.038832     0.004307
NI19   NI        0.485955    0.362286    0.031598     0.004307
NI20   NI        0.445287    0.444228    0.030129     0.004307
NI21   NI        0.479822    0.411144    0.013015     0.004307
NI22   NI        0.549906    0.403567    0.027492     0.004307
NI23   NI        0.516265    0.432620    0.019815     0.004307
NI24   NI        0.540768    0.373766    0.053228     0.004307
NI25   NI        0.585875    0.397552    0.054034     0.004307
NI26   NI        0.626023    0.386151    0.047207     0.004307
NI27   NI        0.271545    0.464346    0.052754     0.004307
NI28   NI        0.296268    0.506567    0.047811     0.004307
NI29   NI        0.330903    0.481653    0.045061     0.004307
NI30   NI        0.413032    0.474220    0.028427     0.004307
AU31   AU        0.376355    0.508652    0.066187     0.007504
AU32   AU        0.403224    0.469697    0.071190     0.007504
NI33   NI        0.392245    0.518425    0.021781     0.004307
NI34   NI        0.482486    0.459813    0.010902     0.004307
NI35   NI        0.452612    0.491630    0.030975     0.004307
AU36   AU        0.490692    0.450074    0.059358     0.007504
NI37   NI        0.498912    0.496967    0.046030     0.004307
NI38   NI        0.564958    0.478557    0.022661     0.004307
NI39   NI        0.537756    0.516170    0.058528     0.004307
NI40   NI        0.561618    0.436791    0.047557     0.004307
NI41   NI        0.601368    0.465948    0.044441     0.004307
NI42   NI        0.612021    0.429356    0.064962     0.004307
NI43   NI        0.239085    0.496201    0.050994     0.004307
NI44   NI        0.303021    0.559550    0.038111     0.004307
NI45   NI        0.350529    0.575002    0.020711     0.004307
AU46   AU        0.377385    0.564467    0.054605     0.007504
NI47   NI        0.422512    0.554020    0.035973     0.004307
NI48   NI        0.448007    0.536916    0.001798     0.004307
NI49   NI        0.449293    0.584273    0.047250     0.004307
AU50   AU        0.469696    0.538688    0.047329     0.007504
NI51   NI        0.513593    0.543176    0.033049     0.004307
NI52   NI        0.556662    0.528500    0.022347     0.004307
NI53   NI        0.584973    0.564914    0.033836     0.004307
NI54   NI        0.640390    0.513010    0.038427     0.004307
NI55   NI        0.331828    0.611134    0.053729     0.004307
NI56   NI        0.380110    0.639008    0.046146     0.004307
NI57   NI        0.413331    0.603241    0.046679     0.004307
NI58   NI        0.456184    0.625927    0.059440     0.004307
NI59   NI        0.478046    0.569229    0.018227     0.004307
NI60   NI        0.559862    0.631053    0.053488     0.004307
NI61   NI        0.500114    0.610149    0.043803     0.004307
NI62   NI        0.295502    0.175478    0.136891     0.004307
NI63   NI        0.380315    0.188875    0.092869     0.004307
NI64   NI        0.418687    0.175343    0.115777     0.004307
NI65   NI        0.325727    0.193505    0.095305     0.004307
NI66   NI        0.452274    0.220312    0.110084     0.004307
NI67   NI        0.485414    0.177134    0.113069     0.004307
NI68   NI        0.488155    0.256617    0.079072     0.004307
NI69   NI        0.524453    0.208808    0.114880     0.004307
NI70   NI        0.593025    0.234902    0.105252     0.004307
NI71   NI        0.209242    0.305778    0.106547     0.004307
NI72   NI        0.298228    0.224043    0.096179     0.004307
NI73   NI        0.286094    0.270409    0.076456     0.004307
AU74   AU        0.309032    0.271169    0.114520     0.007504
NI75   NI        0.343129    0.232643    0.118171     0.004307
NI76   NI        0.348894    0.261542    0.088103     0.004307
NI77   NI        0.369997    0.250720    0.054688     0.004307
AU78   AU        0.373899    0.279190    0.121770     0.007504
AU79   AU        0.412865    0.251257    0.122563     0.007504
AU80   AU        0.402129    0.284659    0.080374     0.007504
NI81   NI        0.409499    0.235624    0.066384     0.004307
AU82   AU        0.470081    0.277187    0.119869     0.007504
AU83   AU        0.499745    0.243345    0.118644     0.007504
AU84   AU        0.482542    0.312821    0.084906     0.007504
NI85   NI        0.501547    0.289553    0.045605     0.004307
AU86   AU        0.521424    0.282405    0.092786     0.007504
AU87   AU        0.551905    0.250016    0.124624     0.007504
NI88   NI        0.566548    0.280144    0.081860     0.004307
AU89   AU        0.590967    0.282160    0.125225     0.007504
NI90   NI        0.633955    0.246935    0.121251     0.004307
NI91   NI        0.640390    0.299926    0.094420     0.004307
NI92   NI        0.713381    0.308814    0.139739     0.004307
NI93   NI        0.207726    0.339046    0.138316     0.004307
AU94   AU        0.241778    0.346297    0.107678     0.007504
AU95   AU        0.272899    0.307846    0.109476     0.007504
NI96   NI        0.276765    0.345014    0.078204     0.004307
NI97   NI        0.303178    0.312212    0.070668     0.004307
AU98   AU        0.302787    0.346976    0.116062     0.007504
AU99   AU        0.335681    0.307338    0.112106     0.007504
AU100   AU        0.331045    0.344395    0.079179     0.007504
AU101   AU        0.402461    0.337160    0.082686     0.007504
AU102   AU        0.365695    0.342029    0.114551     0.007504
AU103   AU        0.399726    0.314906    0.123482     0.007504
NI104   NI        0.420818    0.347592    0.037011     0.004307
AU105   AU        0.437775    0.307715    0.105224     0.007504
AU106   AU        0.433882    0.358395    0.119316     0.007504
AU107   AU        0.474300    0.329349    0.131916     0.007504
AU108   AU        0.448204    0.346921    0.075201     0.007504
NI109   NI        0.518831    0.332537    0.056175     0.004307
AU110   AU        0.517692    0.330120    0.109231     0.007504
AU111   AU        0.557500    0.311769    0.118354     0.007504
AU112   AU        0.558351    0.342617    0.080456     0.007504
NI113   NI        0.596578    0.309620    0.085395     0.004307
AU114   AU        0.589347    0.349203    0.121203     0.007504
AU115   AU        0.623060    0.319764    0.127381     0.007504
NI116   NI        0.615651    0.336719    0.054021     0.004307
NI117   NI        0.648990    0.341136    0.088492     0.004307
NI118   NI        0.715920    0.341795    0.102868     0.004307
NI119   NI        0.176528    0.390459    0.088335     0.004307
AU120   AU        0.207163    0.383406    0.118417     0.007504
NI121   NI        0.188900    0.468510    0.072978     0.004307
NI122   NI        0.215056    0.420220    0.076641     0.004307
AU123   AU        0.232927    0.424265    0.119828     0.007504
AU124   AU        0.270960    0.385506    0.113815     0.007504
AU125   AU        0.267253    0.423317    0.082560     0.007504
AU126   AU        0.301321    0.384098    0.079987     0.007504
AU127   AU        0.305457    0.422244    0.113433     0.007504
AU128   AU        0.337500    0.384293    0.114462     0.007504
AU129   AU        0.339633    0.416832    0.075522     0.007504
AU130   AU        0.366715    0.376129    0.077570     0.007504
AU131   AU        0.362250    0.421285    0.113602     0.007504
AU132   AU        0.388060    0.378840    0.114507     0.007504
AU133   AU        0.393375    0.423299    0.075687     0.007504
AU134   AU        0.415006    0.381606    0.075772     0.007504
AU135   AU        0.423665    0.410792    0.114371     0.007504
AU136   AU        0.463300    0.390945    0.092603     0.007504
AU137   AU        0.502140    0.402821    0.056729     0.007504
AU138   AU        0.511643    0.369204    0.084940     0.007504
AU139   AU        0.505226    0.404114    0.114947     0.007504
AU140   AU        0.549966    0.374960    0.118215     0.007504
AU141   AU        0.546913    0.401390    0.082632     0.007504
NI142   NI        0.604321    0.369861    0.079468     0.004307
AU143   AU        0.591225    0.401284    0.106220     0.007504
AU144   AU        0.636646    0.373110    0.116046     0.007504
NI145   NI        0.647912    0.406538    0.081292     0.004307
NI146   NI        0.679626    0.372729    0.090855     0.004307
AU147   AU        0.659958    0.419098    0.120934     0.007504
NI148   NI        0.697745    0.386792    0.125619     0.004307
NI149   NI        0.720034    0.463939    0.100870     0.004307
NI150   NI        0.712325    0.426176    0.116400     0.004307
NI151   NI        0.154649    0.484400    0.124026     0.004307
NI152   NI        0.192738    0.455679    0.115737     0.004307
NI153   NI        0.204629    0.510804    0.093604     0.004307
AU154   AU        0.235759    0.462023    0.088139     0.007504
AU155   AU        0.233927    0.497595    0.123737     0.007504
AU156   AU        0.270009    0.460775    0.115410     0.007504
AU157   AU        0.266981    0.500480    0.087453     0.007504
AU158   AU        0.304807    0.461107    0.083986     0.007504
AU159   AU        0.301758    0.500754    0.115880     0.007504
AU160   AU        0.336948    0.463025    0.120645     0.007504
AU161   AU        0.331658    0.501168    0.084323     0.007504
AU162   AU        0.355920    0.462208    0.076068     0.007504
AU163   AU        0.365407    0.497701    0.111085     0.007504
AU164   AU        0.388993    0.456474    0.113324     0.007504
AU165   AU        0.425546    0.516672    0.062987     0.007504
AU166   AU        0.446127    0.437707    0.076247     0.007504
AU167   AU        0.440067    0.503027    0.108733     0.007504
AU168   AU        0.484253    0.449949    0.109050     0.007504
AU169   AU        0.470700    0.489633    0.078236     0.007504
AU170   AU        0.527509    0.441659    0.086592     0.007504
AU171   AU        0.518017    0.488751    0.100798     0.007504
AU172   AU        0.550055    0.421365    0.127212     0.007504
AU173   AU        0.559368    0.479796    0.073123     0.007504
AU174   AU        0.579476    0.440568    0.092265     0.007504
AU175   AU        0.587512    0.486595    0.107114     0.007504
AU176   AU        0.620987    0.448823    0.112846     0.007504
NI177   NI        0.617565    0.498236    0.074327     0.004307
NI178   NI        0.648829    0.463462    0.075571     0.004307
AU179   AU        0.638363    0.492805    0.111227     0.007504
AU180   AU        0.681924    0.464377    0.129823     0.007504
NI181   NI        0.686647    0.501935    0.100572     0.004307
NI182   NI        0.752602    0.541143    0.097167     0.004307
NI183   NI        0.191817    0.518470    0.134996     0.004307
NI184   NI        0.233687    0.548849    0.073218     0.004307
AU185   AU        0.231597    0.577620    0.112946     0.007504
AU186   AU        0.263155    0.537409    0.115260     0.007504
NI187   NI        0.269106    0.573602    0.084122     0.004307
AU188   AU        0.299766    0.537308    0.082703     0.007504
AU189   AU        0.300742    0.577736    0.114195     0.007504
AU190   AU        0.334281    0.539062    0.114414     0.007504
AU191   AU        0.334709    0.573468    0.077078     0.007504
AU192   AU        0.338698    0.533457    0.048512     0.007504
AU193   AU        0.373227    0.574652    0.110126     0.007504
AU194   AU        0.397550    0.533075    0.101776     0.007504
AU195   AU        0.412107    0.569123    0.079159     0.007504
AU196   AU        0.452476    0.542656    0.092259     0.007504
AU197   AU        0.420583    0.565317    0.130264     0.007504
NI198   NI        0.483522    0.526606    0.119898     0.004307
AU199   AU        0.489262    0.575334    0.071082     0.007504
AU200   AU        0.504228    0.530863    0.082510     0.007504
AU201   AU        0.524132    0.565336    0.110854     0.007504
AU202   AU        0.556454    0.520748    0.097464     0.007504
AU203   AU        0.541174    0.562428    0.061895     0.007504
NI204   NI        0.581317    0.535488    0.064353     0.004307
AU205   AU        0.567591    0.562720    0.105618     0.007504
AU206   AU        0.608733    0.532547    0.107025     0.007504
NI207   NI        0.619720    0.554963    0.065585     0.004307
NI208   NI        0.663239    0.544212    0.076807     0.004307
AU209   AU        0.641123    0.567720    0.129042     0.007504
NI210   NI        0.658363    0.529282    0.119209     0.004307
NI211   NI        0.186732    0.554350    0.110904     0.004307
NI212   NI        0.221081    0.618759    0.106204     0.004307
AU213   AU        0.263762    0.614407    0.116927     0.007504
NI214   NI        0.249985    0.660054    0.113522     0.004307
NI215   NI        0.297548    0.614616    0.077768     0.004307
AU216   AU        0.301889    0.652147    0.115707     0.007504
AU217   AU        0.336941    0.613705    0.111611     0.007504
NI218   NI        0.337531    0.650481    0.074760     0.004307
AU219   AU        0.370955    0.609499    0.076045     0.007504
AU220   AU        0.371158    0.648101    0.109460     0.007504
AU221   AU        0.407660    0.605675    0.109245     0.007504
AU222   AU        0.414072    0.640585    0.081868     0.007504
AU223   AU        0.452248    0.591831    0.095866     0.007504
AU224   AU        0.460254    0.638494    0.104410     0.007504
AU225   AU        0.490291    0.598315    0.119802     0.007504
NI226   NI        0.498072    0.647969    0.073836     0.004307
AU227   AU        0.525442    0.605693    0.084162     0.007504
AU228   AU        0.518833    0.636117    0.125161     0.007504
AU229   AU        0.558555    0.599379    0.126132     0.007504
AU230   AU        0.560231    0.640513    0.100272     0.007504
NI231   NI        0.569472    0.594692    0.078344     0.004307
NI232   NI        0.600224    0.626704    0.083872     0.004307
NI233   NI        0.605030    0.584496    0.102993     0.004307
NI234   NI        0.620407    0.710303    0.088111     0.004307
NI235   NI        0.640533    0.610262    0.114849     0.004307
NI236   NI        0.712567    0.623406    0.133982     0.004307
NI237   NI        0.243517    0.693959    0.140858     0.004307
NI238   NI        0.279033    0.690227    0.117479     0.004307
NI239   NI        0.330757    0.687441    0.107648     0.004307
NI240   NI        0.370592    0.676182    0.069700     0.004307
NI241   NI        0.377643    0.716108    0.101490     0.004307
AU242   AU        0.406780    0.683722    0.105084     0.007504
NI243   NI        0.408749    0.698327    0.057773     0.004307
NI244   NI        0.449284    0.678946    0.082153     0.004307
NI245   NI        0.443649    0.718778    0.106120     0.004307
AU246   AU        0.490980    0.675316    0.113476     0.007504
NI247   NI        0.478278    0.713907    0.077576     0.004307
NI248   NI        0.521714    0.701959    0.086653     0.004307
NI249   NI        0.517998    0.727976    0.119312     0.004307
NI250   NI        0.565477    0.694232    0.102295     0.004307
NI251   NI        0.631855    0.713489    0.142725     0.004307
NI252   NI        0.617356    0.666863    0.102106     0.004307
NI253   NI        0.401833    0.758587    0.110945     0.004307
NI254   NI        0.473398    0.762075    0.109640     0.004307
NI255   NI        0.297603    0.126932    0.190329     0.004307
NI256   NI        0.377573    0.130969    0.184293     0.004307
NI257   NI        0.417391    0.094958    0.197943     0.004307
NI258   NI        0.401454    0.147924    0.146341     0.004307
AU259   AU        0.452610    0.137635    0.190901     0.007504
NI260   NI        0.497829    0.112945    0.189691     0.004307
NI261   NI        0.483711    0.140594    0.149590     0.004307
NI262   NI        0.527742    0.157956    0.186146     0.004307
NI263   NI        0.576395    0.124498    0.214303     0.004307
NI264   NI        0.173262    0.232269    0.159518     0.004307
NI265   NI        0.257759    0.186454    0.169223     0.004307
NI266   NI        0.248352    0.233229    0.138810     0.004307
NI267   NI        0.353793    0.152352    0.145841     0.004307
AU268   AU        0.299067    0.195244    0.178754     0.007504
AU269   AU        0.336551    0.160493    0.184729     0.007504
AU270   AU        0.334091    0.192513    0.146840     0.007504
NI271   NI        0.375701    0.188663    0.139486     0.004307
AU272   AU        0.372013    0.198708    0.181198     0.007504
AU273   AU        0.413553    0.169645    0.187857     0.007504
AU274   AU        0.412564    0.207004    0.152301     0.007504
AU275   AU        0.450357    0.171969    0.153367     0.007504
AU276   AU        0.446986    0.208514    0.190172     0.007504
AU277   AU        0.484671    0.173478    0.188820     0.007504
AU278   AU        0.483124    0.208676    0.154616     0.007504
NI279   NI        0.518809    0.179719    0.150859     0.004307
AU280   AU        0.520473    0.204713    0.188712     0.007504
NI281   NI        0.571803    0.162616    0.173498     0.004307
AU282   AU        0.559083    0.207620    0.153715     0.007504
NI283   NI        0.609040    0.188833    0.138637     0.004307
AU284   AU        0.598153    0.202598    0.183438     0.007504
NI285   NI        0.636205    0.179684    0.175257     0.004307
NI286   NI        0.633074    0.218865    0.153296     0.004307
NI287   NI        0.674162    0.193623    0.158045     0.004307
NI288   NI        0.127784    0.318544    0.193919     0.004307
NI289   NI        0.207131    0.242328    0.187936     0.004307
NI290   NI        0.208624    0.271883    0.151105     0.004307
NI291   NI        0.222519    0.197693    0.143276     0.004307
AU292   AU        0.239346    0.276398    0.183784     0.007504
AU293   AU        0.266442    0.232198    0.179505     0.007504
AU294   AU        0.275118    0.270794    0.149311     0.007504
AU295   AU        0.300179    0.229031    0.141945     0.007504
AU296   AU        0.297112    0.274473    0.187299     0.007504
AU297   AU        0.332462    0.233567    0.178295     0.007504
AU298   AU        0.335079    0.272770    0.153660     0.007504
AU299   AU        0.373510    0.240392    0.156630     0.007504
NI300   NI        0.358663    0.274831    0.188600     0.004307
AU301   AU        0.412624    0.244299    0.185918     0.007504
AU302   AU        0.399508    0.280842    0.164657     0.007504
AU303   AU        0.448189    0.244396    0.152159     0.007504
AU304   AU        0.435762    0.288555    0.200156     0.007504
AU305   AU        0.482703    0.242386    0.190374     0.007504
AU306   AU        0.469977    0.286960    0.165198     0.007504
AU307   AU        0.523079    0.239590    0.163511     0.007504
AU308   AU        0.513453    0.282116    0.192694     0.007504
AU309   AU        0.560678    0.240537    0.188156     0.007504
AU310   AU        0.549680    0.284891    0.158693     0.007504
AU311   AU        0.594489    0.241592    0.151024     0.007504
AU312   AU        0.590354    0.278187    0.187292     0.007504
AU313   AU        0.627836    0.241984    0.189184     0.007504
AU314   AU        0.626459    0.281767    0.157130     0.007504
NI315   NI        0.670128    0.260740    0.144321     0.004307
AU316   AU        0.663578    0.279472    0.188095     0.007504
NI317   NI        0.678389    0.231015    0.182602     0.004307
NI318   NI        0.710790    0.264560    0.167209     0.004307
NI319   NI        0.740548    0.257373    0.216050     0.004307
NI320   NI        0.071358    0.338285    0.225095     0.004307
NI321   NI        0.164621    0.315262    0.154959     0.004307
AU322   AU        0.162276    0.358482    0.188644     0.007504
AU323   AU        0.202645    0.309802    0.181082     0.007504
AU324   AU        0.199491    0.373592    0.167054     0.007504
AU325   AU        0.239394    0.308666    0.145713     0.007504
AU326   AU        0.238463    0.346398    0.180788     0.007504
AU327   AU        0.267622    0.309419    0.186558     0.007504
AU328   AU        0.269154    0.347003    0.148142     0.007504
AU329   AU        0.302414    0.308087    0.148615     0.007504
AU330   AU        0.299112    0.345683    0.186008     0.007504
AU331   AU        0.331075    0.309243    0.189626     0.007504
AU332   AU        0.335176    0.345892    0.152923     0.007504
AU333   AU        0.362549    0.312242    0.155996     0.007504
NI334   NI        0.361408    0.351792    0.191214     0.004307
AU335   AU        0.395422    0.321185    0.194727     0.007504
AU336   AU        0.395651    0.353411    0.156995     0.007504
AU337   AU        0.428997    0.319125    0.155112     0.007504
NI338   NI        0.446989    0.335385    0.198249     0.004307
AU339   AU        0.494023    0.328967    0.178917     0.007504
NI340   NI        0.455923    0.361616    0.164869     0.004307
AU341   AU        0.507038    0.291243    0.138223     0.007504
NI342   NI        0.533598    0.358009    0.205463     0.004307
AU343   AU        0.553107    0.317083    0.196360     0.007504
AU344   AU        0.555776    0.347073    0.155711     0.007504
AU345   AU        0.587509    0.317581    0.160300     0.007504
AU346   AU        0.589888    0.354315    0.193079     0.007504
AU347   AU        0.626706    0.317350    0.189136     0.007504
AU348   AU        0.619823    0.358111    0.161905     0.007504
AU349   AU        0.664829    0.314573    0.152648     0.007504
AU350   AU        0.666794    0.348108    0.191252     0.007504
AU351   AU        0.701542    0.310275    0.185674     0.007504
AU352   AU        0.697040    0.349348    0.153031     0.007504
NI353   NI        0.746555    0.294348    0.176096     0.004307
AU354   AU        0.734626    0.348955    0.183855     0.007504
NI355   NI        0.772205    0.334210    0.168819     0.004307
NI356   NI        0.102720    0.405436    0.196221     0.004307
NI357   NI        0.121649    0.373679    0.164127     0.004307
NI358   NI        0.117831    0.425422    0.145469     0.004307
NI359   NI        0.164286    0.385218    0.142434     0.004307
AU360   AU        0.151746    0.410761    0.182270     0.007504
AU361   AU        0.193029    0.396707    0.207572     0.007504
AU362   AU        0.191589    0.419616    0.149502     0.007504
AU363   AU        0.240419    0.381957    0.146403     0.007504
AU364   AU        0.229375    0.417049    0.182841     0.007504
AU365   AU        0.269085    0.384885    0.186378     0.007504
AU366   AU        0.269549    0.422375    0.148875     0.007504
AU367   AU        0.300727    0.385312    0.152444     0.007504
NI368   NI        0.303342    0.423386    0.182960     0.004307
NI369   NI        0.332851    0.387231    0.188706     0.004307
NI370   NI        0.330744    0.422826    0.151446     0.004307
NI371   NI        0.358694    0.382161    0.155584     0.004307
NI372   NI        0.404426    0.419291    0.194779     0.004307
NI373   NI        0.406437    0.367162    0.198891     0.004307
NI374   NI        0.393347    0.429998    0.151680     0.004307
AU375   AU        0.425636    0.393194    0.161025     0.007504
NI376   NI        0.450107    0.393481    0.203431     0.004307
NI377   NI        0.488245    0.380208    0.195317     0.004307
NI378   NI        0.464336    0.415972    0.141609     0.004307
NI379   NI        0.512204    0.362396    0.149357     0.004307
NI380   NI        0.489259    0.421656    0.179167     0.004307
NI381   NI        0.559639    0.392425    0.202175     0.004307
NI382   NI        0.540399    0.416239    0.171967     0.004307
AU383   AU        0.580822    0.389109    0.155261     0.007504
NI384   NI        0.595915    0.424330    0.182871     0.004307
AU385   AU        0.622087    0.392599    0.195098     0.007504
AU386   AU        0.619999    0.409044    0.146708     0.007504
AU387   AU        0.660749    0.386549    0.160984     0.007504
AU388   AU        0.665667    0.423221    0.196980     0.007504
AU389   AU        0.700708    0.385660    0.189189     0.007504
AU390   AU        0.694024    0.422587    0.158900     0.007504
NI391   NI        0.736096    0.378926    0.148444     0.004307
AU392   AU        0.736924    0.420257    0.182729     0.007504
NI393   NI        0.769015    0.389307    0.175901     0.004307
NI394   NI        0.771644    0.481850    0.142381     0.004307
NI395   NI        0.803496    0.421228    0.177271     0.004307
NI396   NI        0.088217    0.528472    0.208556     0.004307
AU397   AU        0.123461    0.449185    0.193228     0.007504
NI398   NI        0.110279    0.519363    0.169822     0.004307
AU399   AU        0.158597    0.447934    0.152335     0.007504
AU400   AU        0.147792    0.489467    0.174082     0.007504
AU401   AU        0.187723    0.443911    0.194120     0.007504
AU402   AU        0.200683    0.475039    0.159764     0.007504
AU403   AU        0.248727    0.459343    0.153330     0.007504
AU404   AU        0.241702    0.501060    0.177121     0.007504
AU405   AU        0.284704    0.463576    0.188274     0.007504
AU406   AU        0.274380    0.499383    0.149048     0.007504
AU407   AU        0.300330    0.460490    0.147063     0.007504
NI408   NI        0.306689    0.502530    0.184609     0.004307
NI409   NI        0.340648    0.462522    0.172950     0.004307
NI410   NI        0.333274    0.503030    0.148769     0.004307
NI411   NI        0.378782    0.478674    0.159784     0.004307
NI412   NI        0.368559    0.514838    0.195142     0.004307
NI413   NI        0.410181    0.454704    0.224710     0.004307
NI414   NI        0.410039    0.500674    0.139940     0.004307
NI415   NI        0.432821    0.457925    0.111211     0.004307
NI416   NI        0.406866    0.491106    0.192618     0.004307
NI417   NI        0.442058    0.462099    0.166398     0.004307
AU418   AU        0.482183    0.489453    0.138880     0.007504
NI419   NI        0.514119    0.442198    0.141057     0.004307
NI420   NI        0.516219    0.489151    0.171558     0.004307
NI421   NI        0.539822    0.461293    0.188653     0.004307
AU422   AU        0.550564    0.471447    0.139613     0.007504
NI423   NI        0.582181    0.439440    0.143781     0.004307
NI424   NI        0.571799    0.493765    0.183562     0.004307
NI425   NI        0.619777    0.476347    0.200626     0.004307
AU426   AU        0.610686    0.477618    0.152788     0.007504
AU427   AU        0.651581    0.451452    0.159024     0.007504
AU428   AU        0.671132    0.508619    0.189866     0.007504
AU429   AU        0.696133    0.464306    0.182809     0.007504
AU430   AU        0.700660    0.503037    0.148836     0.007504
AU431   AU        0.727278    0.461478    0.151062     0.007504
AU432   AU        0.737174    0.495520    0.182694     0.007504
AU433   AU        0.768225    0.456119    0.179977     0.007504
NI434   NI        0.736840    0.536785    0.156210     0.004307
NI435   NI        0.787535    0.506970    0.170585     0.004307
NI436   NI        0.130772    0.552389    0.194159     0.004307
NI437   NI        0.159313    0.535125    0.163069     0.004307
AU438   AU        0.177857    0.560570    0.196619     0.007504
AU439   AU        0.201031    0.518617    0.186466     0.007504
AU440   AU        0.194188    0.572008    0.152511     0.007504
AU441   AU        0.232423    0.543085    0.152787     0.007504
AU442   AU        0.231773    0.577553    0.187845     0.007504
AU443   AU        0.266719    0.543019    0.188347     0.007504
AU444   AU        0.267321    0.576605    0.149621     0.007504
AU445   AU        0.301249    0.539538    0.145971     0.007504
AU446   AU        0.302281    0.579321    0.185474     0.007504
NI447   NI        0.333781    0.537522    0.184116     0.004307
AU448   AU        0.337251    0.577650    0.147204     0.007504
AU449   AU        0.365706    0.536103    0.143134     0.007504
NI450   NI        0.373212    0.567080    0.181456     0.004307
NI451   NI        0.401899    0.540591    0.165693     0.004307
NI452   NI        0.412953    0.612035    0.180808     0.004307
NI453   NI        0.441252    0.510496    0.178770     0.004307
AU454   AU        0.455938    0.554596    0.165861     0.007504
NI455   NI        0.490129    0.520062    0.179234     0.004307
AU456   AU        0.504009    0.559793    0.154521     0.007504
AU457   AU        0.528695    0.517362    0.139005     0.007504
NI458   NI        0.529017    0.584440    0.206660     0.004307
NI459   NI        0.534068    0.533840    0.187463     0.004307
AU460   AU        0.553274    0.556840    0.153871     0.007504
AU461   AU        0.579286    0.514540    0.144428     0.007504
NI462   NI        0.597134    0.541680    0.195129     0.004307
NI463   NI        0.635714    0.526068    0.204730     0.004307
AU464   AU        0.594965    0.562329    0.146931     0.007504
AU465   AU        0.627569    0.528100    0.154820     0.007504
AU466   AU        0.642521    0.569027    0.179576     0.007504
AU467   AU        0.710655    0.538556    0.193841     0.007504
AU468   AU        0.677217    0.547189    0.158778     0.007504
NI469   NI        0.706173    0.543363    0.118129     0.004307
NI470   NI        0.751682    0.608647    0.170420     0.004307
AU471   AU        0.759981    0.538408    0.200213     0.007504
NI472   NI        0.107070    0.614000    0.171641     0.004307
NI473   NI        0.145334    0.583397    0.163374     0.004307
NI474   NI        0.140786    0.662994    0.205681     0.004307
AU475   AU        0.192553    0.606960    0.187258     0.007504
NI476   NI        0.178539    0.617839    0.139485     0.004307
AU477   AU        0.229454    0.611924    0.150908     0.007504
AU478   AU        0.226481    0.647869    0.181928     0.007504
AU479   AU        0.265736    0.614511    0.186517     0.007504
AU480   AU        0.269279    0.652039    0.152329     0.007504
AU481   AU        0.301792    0.614647    0.150382     0.007504
AU482   AU        0.303342    0.648427    0.189310     0.007504
AU483   AU        0.340318    0.613436    0.185884     0.007504
AU484   AU        0.339589    0.641067    0.150177     0.007504
AU485   AU        0.373559    0.612204    0.145412     0.007504
NI486   NI        0.380099    0.622783    0.214150     0.004307
NI487   NI        0.447560    0.588682    0.198040     0.004307
AU488   AU        0.416630    0.642585    0.134030     0.007504
AU489   AU        0.444364    0.600055    0.143155     0.007504
NI490   NI        0.447040    0.662618    0.175122     0.004307
NI491   NI        0.486239    0.597290    0.168539     0.004307
AU492   AU        0.471161    0.642144    0.146087     0.007504
AU493   AU        0.530075    0.602955    0.158176     0.007504
AU494   AU        0.517397    0.648448    0.175276     0.007504
AU495   AU        0.556124    0.632392    0.199466     0.007504
AU496   AU        0.561496    0.643486    0.150898     0.007504
AU497   AU        0.580832    0.600358    0.168337     0.007504
AU498   AU        0.596320    0.647876    0.185478     0.007504
AU499   AU        0.630224    0.616593    0.163479     0.007504
AU500   AU        0.598492    0.628508    0.128790     0.007504
AU501   AU        0.674429    0.598162    0.151901     0.007504
AU502   AU        0.666450    0.609624    0.200493     0.007504
NI503   NI        0.711257    0.577128    0.161065     0.004307
NI504   NI        0.636358    0.663091    0.143280     0.004307
NI505   NI        0.682679    0.582441    0.108674     0.004307
AU506   AU        0.706102    0.621490    0.181087     0.007504
NI507   NI        0.731554    0.663710    0.146205     0.004307
NI508   NI        0.181023    0.657290    0.169069     0.004307
NI509   NI        0.212498    0.656110    0.137558     0.004307
NI510   NI        0.218149    0.695790    0.205603     0.004307
AU511   AU        0.263109    0.675841    0.196913     0.007504
NI512   NI        0.272990    0.711055    0.163018     0.004307
AU513   AU        0.313740    0.678831    0.151059     0.007504
AU514   AU        0.307763    0.699659    0.188426     0.007504
AU515   AU        0.349534    0.669616    0.187694     0.007504
NI516   NI        0.316077    0.721356    0.149038     0.004307
AU517   AU        0.364394    0.688061    0.140365     0.007504
AU518   AU        0.378171    0.708174    0.183918     0.007504
AU519   AU        0.405936    0.679517    0.165945     0.007504
AU520   AU        0.405777    0.717406    0.142326     0.007504
AU521   AU        0.445188    0.683364    0.134530     0.007504
AU522   AU        0.441731    0.716113    0.170841     0.007504
AU523   AU        0.482643    0.684596    0.164364     0.007504
AU524   AU        0.480289    0.719651    0.138235     0.007504
AU525   AU        0.528431    0.681385    0.136312     0.007504
AU526   AU        0.518011    0.717319    0.171415     0.007504
AU527   AU        0.553349    0.683214    0.178142     0.007504
NI528   NI        0.556953    0.715168    0.137651     0.004307
AU529   AU        0.596965    0.677392    0.150507     0.007504
AU530   AU        0.591662    0.718805    0.173299     0.007504
AU531   AU        0.631403    0.685803    0.186226     0.007504
NI532   NI        0.658696    0.729366    0.187619     0.004307
AU533   AU        0.667383    0.653036    0.172639     0.007504
NI534   NI        0.670280    0.698321    0.213425     0.004307
NI535   NI        0.713603    0.671505    0.187403     0.004307
NI536   NI        0.284647    0.749039    0.177083     0.004307
NI537   NI        0.327492    0.767329    0.160794     0.004307
NI538   NI        0.326203    0.803011    0.194377     0.004307
AU539   AU        0.361312    0.766920    0.194990     0.007504
NI540   NI        0.360567    0.735740    0.157453     0.004307
NI541   NI        0.399090    0.796498    0.177652     0.004307
AU542   AU        0.405068    0.750620    0.179957     0.007504
NI543   NI        0.375419    0.780102    0.147182     0.004307
NI544   NI        0.447128    0.755438    0.139947     0.004307
NI545   NI        0.441529    0.787513    0.191189     0.004307
AU546   AU        0.477973    0.742907    0.187084     0.007504
NI547   NI        0.474378    0.789889    0.164320     0.004307
NI548   NI        0.501447    0.756837    0.152677     0.004307
NI549   NI        0.521537    0.789308    0.170573     0.004307
AU550   AU        0.550381    0.749031    0.173419     0.007504
NI551   NI        0.590945    0.759373    0.144839     0.004307
NI552   NI        0.550573    0.795893    0.200230     0.004307
NI553   NI        0.624193    0.763769    0.175614     0.004307
NI554   NI        0.434577    0.793959    0.141525     0.004307
NI555   NI        0.456749    0.828340    0.152338     0.004307
NI556   NI        0.354561    0.086079    0.259619     0.004307
NI557   NI        0.431892    0.058740    0.240854     0.004307
NI558   NI        0.519940    0.052690    0.291282     0.004307
NI559   NI        0.204292    0.122355    0.282946     0.004307
NI560   NI        0.330231    0.053386    0.226869     0.004307
NI561   NI        0.242997    0.162588    0.213310     0.004307
NI562   NI        0.277267    0.120726    0.225474     0.004307
NI563   NI        0.313234    0.111872    0.257115     0.004307
AU564   AU        0.342096    0.127757    0.220878     0.007504
NI565   NI        0.382208    0.094705    0.225151     0.004307
AU566   AU        0.375784    0.132050    0.259725     0.007504
NI567   NI        0.411298    0.095409    0.260124     0.004307
AU568   AU        0.412553    0.132577    0.220564     0.007504
NI569   NI        0.447992    0.104660    0.231604     0.004307
AU570   AU        0.442543    0.137627    0.261933     0.007504
AU571   AU        0.481318    0.106836    0.271009     0.007504
AU572   AU        0.483868    0.139502    0.230612     0.007504
NI573   NI        0.514386    0.091198    0.239277     0.004307
AU574   AU        0.519196    0.138440    0.263830     0.007504
NI575   NI        0.554334    0.110307    0.250136     0.004307
NI576   NI        0.529072    0.128943    0.214988     0.004307
AU577   AU        0.598583    0.132998    0.256059     0.007504
NI578   NI        0.664968    0.105436    0.303753     0.004307
NI579   NI        0.634826    0.126188    0.219454     0.004307
NI580   NI        0.667533    0.128038    0.261903     0.004307
NI581   NI        0.169880    0.197195    0.239491     0.004307
NI582   NI        0.208136    0.160944    0.255823     0.004307
NI583   NI        0.209700    0.205639    0.216462     0.004307
NI584   NI        0.213809    0.181562    0.179856     0.004307
AU585   AU        0.231007    0.203328    0.253815     0.007504
AU586   AU        0.264487    0.164262    0.255807     0.007504
AU587   AU        0.267975    0.200361    0.219221     0.007504
AU588   AU        0.301926    0.161704    0.220362     0.007504
AU589   AU        0.303201    0.199423    0.254289     0.007504
AU590   AU        0.338304    0.166101    0.254827     0.007504
AU591   AU        0.333282    0.199504    0.214586     0.007504
AU592   AU        0.374499    0.165622    0.219469     0.007504
AU593   AU        0.369199    0.204548    0.251494     0.007504
AU594   AU        0.406083    0.170154    0.254163     0.007504
AU595   AU        0.406913    0.205973    0.219195     0.007504
AU596   AU        0.446308    0.171838    0.224635     0.007504
NI597   NI        0.435996    0.213230    0.252155     0.004307
AU598   AU        0.475839    0.176664    0.263154     0.007504
AU599   AU        0.484790    0.202436    0.220919     0.007504
AU600   AU        0.519997    0.174632    0.228065     0.007504
NI601   NI        0.550032    0.196869    0.269321     0.004307
AU602   AU        0.562330    0.161355    0.247446     0.007504
AU603   AU        0.561473    0.200275    0.215171     0.007504
AU604   AU        0.600257    0.165277    0.214081     0.007504
AU605   AU        0.596638    0.199411    0.248153     0.007504
AU606   AU        0.634263    0.166872    0.252675     0.007504
AU607   AU        0.635532    0.203127    0.218808     0.007504
NI608   NI        0.657778    0.158704    0.205701     0.004307
AU609   AU        0.667652    0.205692    0.257968     0.007504
NI610   NI        0.707951    0.173209    0.271241     0.004307
NI611   NI        0.677988    0.198447    0.209945     0.004307
NI612   NI        0.738614    0.219023    0.260060     0.004307
NI613   NI        0.071714    0.270103    0.306231     0.004307
NI614   NI        0.113764    0.228123    0.276110     0.004307
NI615   NI        0.144039    0.267050    0.203019     0.004307
NI616   NI        0.152421    0.234430    0.240470     0.004307
AU617   AU        0.162675    0.275200    0.251725     0.007504
AU618   AU        0.198191    0.240518    0.250487     0.007504
AU619   AU        0.202085    0.277054    0.217686     0.007504
AU620   AU        0.236229    0.238707    0.220011     0.007504
AU621   AU        0.234410    0.275330    0.251355     0.007504
AU622   AU        0.269538    0.238739    0.255033     0.007504
AU623   AU        0.272692    0.276556    0.224927     0.007504
AU624   AU        0.300388    0.234570    0.213787     0.007504
AU625   AU        0.300668    0.276303    0.265365     0.007504
AU626   AU        0.331410    0.238633    0.249887     0.007504
NI627   NI        0.325401    0.270525    0.221462     0.004307
AU628   AU        0.369036    0.237359    0.212115     0.007504
NI629   NI        0.361862    0.278883    0.247187     0.004307
AU630   AU        0.400383    0.245857    0.250060     0.007504
AU631   AU        0.395442    0.281768    0.217826     0.007504
NI632   NI        0.439799    0.248458    0.218175     0.004307
AU633   AU        0.430414    0.284193    0.249485     0.007504
NI634   NI        0.479454    0.241288    0.244862     0.004307
NI635   NI        0.496283    0.276157    0.233431     0.004307
AU636   AU        0.523041    0.236600    0.218493     0.007504
NI637   NI        0.493172    0.306446    0.264471     0.004307
AU638   AU        0.564063    0.238334    0.247852     0.007504
NI639   NI        0.555355    0.275601    0.221878     0.004307
AU640   AU        0.595032    0.239466    0.216869     0.007504
AU641   AU        0.592955    0.276337    0.251264     0.007504
AU642   AU        0.625931    0.238986    0.254631     0.007504
AU643   AU        0.626616    0.278837    0.221062     0.007504
AU644   AU        0.662887    0.245596    0.225141     0.007504
AU645   AU        0.660787    0.281345    0.261310     0.007504
AU646   AU        0.696971    0.246307    0.262834     0.007504
AU647   AU        0.699502    0.279472    0.225225     0.007504
NI648   NI        0.710593    0.227161    0.223987     0.004307
AU649   AU        0.736182    0.281259    0.259468     0.007504
NI650   NI        0.774355    0.269526    0.240461     0.004307
NI651   NI        0.784559    0.295215    0.206277     0.004307
NI652   NI        0.813413    0.275603    0.268996     0.004307
AU653   AU        0.101021    0.350479    0.264077     0.007504
AU654   AU        0.126748    0.310580    0.249793     0.007504
AU655   AU        0.127964    0.352729    0.223412     0.007504
AU656   AU        0.165723    0.314797    0.215683     0.007504
AU657   AU        0.172393    0.353710    0.245822     0.007504
AU658   AU        0.198393    0.311332    0.253048     0.007504
AU659   AU        0.204381    0.346326    0.210760     0.007504
AU660   AU        0.236178    0.311187    0.220398     0.007504
NI661   NI        0.224770    0.349533    0.251937     0.004307
AU662   AU        0.265600    0.317149    0.260587     0.007504
AU663   AU        0.270442    0.347903    0.221061     0.007504
AU664   AU        0.300300    0.313464    0.225722     0.007504
NI665   NI        0.302208    0.347971    0.261231     0.004307
AU666   AU        0.328487    0.314773    0.266760     0.007504
NI667   NI        0.329573    0.348672    0.228477     0.004307
AU668   AU        0.375314    0.320194    0.241212     0.007504
NI669   NI        0.352069    0.358599    0.266773     0.004307
NI670   NI        0.417403    0.328777    0.234645     0.004307
NI671   NI        0.384505    0.363925    0.237698     0.004307
NI672   NI        0.473068    0.308872    0.214395     0.004307
NI673   NI        0.427157    0.370928    0.251504     0.004307
NI674   NI        0.456686    0.326168    0.264162     0.004307
NI675   NI        0.471645    0.354152    0.226090     0.004307
NI676   NI        0.510731    0.324787    0.225868     0.004307
NI677   NI        0.524032    0.353339    0.267409     0.004307
NI678   NI        0.545851    0.311854    0.242735     0.004307
NI679   NI        0.555502    0.382317    0.249008     0.004307
AU680   AU        0.588458    0.315890    0.221144     0.007504
NI681   NI        0.586795    0.354923    0.253848     0.004307
AU682   AU        0.623389    0.314614    0.259516     0.007504
AU683   AU        0.627548    0.350230    0.224091     0.007504
AU684   AU        0.663535    0.314505    0.226632     0.007504
NI685   NI        0.662303    0.345887    0.265307     0.004307
AU686   AU        0.701218    0.314205    0.260279     0.007504
AU687   AU        0.706252    0.345119    0.221534     0.007504
AU688   AU        0.739625    0.310729    0.219961     0.007504
AU689   AU        0.739724    0.346546    0.254995     0.007504
AU690   AU        0.775626    0.310687    0.255602     0.007504
AU691   AU        0.772166    0.345914    0.217685     0.007504
NI692   NI        0.805592    0.348183    0.251350     0.004307
NI693   NI        0.075702    0.304510    0.256345     0.004307
AU694   AU        0.097088    0.392790    0.236720     0.007504
AU695   AU        0.102608    0.425042    0.276969     0.007504
AU696   AU        0.134873    0.385339    0.270822     0.007504
AU697   AU        0.132473    0.427312    0.238293     0.007504
AU698   AU        0.149073    0.391167    0.221081     0.007504
AU699   AU        0.155327    0.431761    0.281422     0.007504
NI700   NI        0.182180    0.391499    0.281003     0.004307
NI701   NI        0.224382    0.426518    0.230500     0.004307
AU702   AU        0.235471    0.385271    0.222352     0.007504
NI703   NI        0.221988    0.398889    0.262950     0.004307
NI704   NI        0.266041    0.409547    0.252672     0.004307
AU705   AU        0.271211    0.426112    0.211917     0.007504
NI706   NI        0.302707    0.386783    0.226849     0.004307
NI707   NI        0.337297    0.446905    0.270160     0.004307
NI708   NI        0.317523    0.403258    0.272655     0.004307
NI709   NI        0.319569    0.445178    0.226445     0.004307
NI710   NI        0.355068    0.398495    0.238090     0.004307
NI711   NI        0.371593    0.437877    0.234979     0.004307
NI712   NI        0.395094    0.398473    0.261526     0.004307
NI713   NI        0.432427    0.418469    0.235126     0.004307
NI714   NI        0.479309    0.395804    0.234448     0.004307
NI715   NI        0.465612    0.416665    0.268563     0.004307
NI716   NI        0.478148    0.369278    0.276333     0.004307
NI717   NI        0.464133    0.435044    0.209381     0.004307
NI718   NI        0.514665    0.411405    0.214564     0.004307
NI719   NI        0.514067    0.439182    0.263335     0.004307
NI720   NI        0.590039    0.392302    0.274390     0.004307
NI721   NI        0.547665    0.423135    0.241133     0.004307
NI722   NI        0.589682    0.405823    0.228774     0.004307
NI723   NI        0.587257    0.433228    0.259847     0.004307
NI724   NI        0.628466    0.399159    0.254622     0.004307
NI725   NI        0.625612    0.437273    0.229933     0.004307
NI726   NI        0.663387    0.389558    0.224598     0.004307
NI727   NI        0.661298    0.428527    0.249627     0.004307
AU728   AU        0.702827    0.380779    0.253738     0.007504
AU729   AU        0.704212    0.423305    0.220599     0.007504
AU730   AU        0.738895    0.385005    0.218428     0.007504
AU731   AU        0.735828    0.418622    0.256249     0.007504
AU732   AU        0.773971    0.385621    0.252961     0.007504
AU733   AU        0.771067    0.423359    0.219628     0.007504
NI734   NI        0.804930    0.387957    0.216227     0.004307
AU735   AU        0.809066    0.422878    0.251255     0.007504
NI736   NI        0.872988    0.409093    0.325903     0.004307
NI737   NI        0.062804    0.402275    0.273708     0.004307
AU738   AU        0.085540    0.441553    0.229803     0.007504
NI739   NI        0.074120    0.493834    0.236948     0.004307
AU740   AU        0.116273    0.472804    0.255416     0.007504
AU741   AU        0.115485    0.494873    0.211881     0.007504
AU742   AU        0.154800    0.472940    0.224945     0.007504
AU743   AU        0.151012    0.511724    0.261963     0.007504
NI744   NI        0.183825    0.433069    0.247265     0.004307
NI745   NI        0.201441    0.469380    0.231051     0.004307
AU746   AU        0.239272    0.462207    0.207262     0.007504
NI747   NI        0.229021    0.504774    0.229652     0.004307
NI748   NI        0.279863    0.459302    0.240557     0.004307
AU749   AU        0.272862    0.501417    0.213722     0.007504
NI750   NI        0.322260    0.485721    0.219029     0.004307
NI751   NI        0.300900    0.505781    0.254974     0.004307
NI752   NI        0.309944    0.467861    0.295234     0.004307
NI753   NI        0.360703    0.506113    0.241642     0.004307
NI754   NI        0.371078    0.473320    0.214081     0.004307
AU755   AU        0.379772    0.499907    0.293761     0.007504
NI756   NI        0.423157    0.445748    0.266049     0.004307
NI757   NI        0.408185    0.521467    0.227214     0.004307
NI758   NI        0.445665    0.482067    0.236686     0.004307
NI759   NI        0.457901    0.514674    0.270510     0.004307
NI760   NI        0.477229    0.468200    0.262274     0.004307
NI761   NI        0.477192    0.487606    0.201945     0.004307
NI762   NI        0.505617    0.450902    0.214534     0.004307
NI763   NI        0.514474    0.502100    0.273022     0.004307
NI764   NI        0.549722    0.472296    0.274103     0.004307
NI765   NI        0.543098    0.491518    0.231968     0.004307
NI766   NI        0.571697    0.457309    0.220962     0.004307
NI767   NI        0.588415    0.504005    0.285448     0.004307
NI768   NI        0.620215    0.467998    0.273447     0.004307
NI769   NI        0.581733    0.500606    0.239017     0.004307
NI770   NI        0.668883    0.466500    0.218434     0.004307
NI771   NI        0.656048    0.501362    0.256006     0.004307
AU772   AU        0.702788    0.457890    0.257317     0.007504
AU773   AU        0.702766    0.497057    0.223543     0.007504
AU774   AU        0.734807    0.458236    0.217221     0.007504
AU775   AU        0.739725    0.492664    0.254451     0.007504
AU776   AU        0.772261    0.452352    0.252176     0.007504
AU777   AU        0.773359    0.490075    0.215057     0.007504
NI778   NI        0.805208    0.459293    0.212669     0.004307
AU779   AU        0.809290    0.484578    0.251567     0.007504
NI780   NI        0.845523    0.455304    0.259116     0.004307
NI781   NI        0.033384    0.497815    0.255784     0.004307
NI782   NI        0.089833    0.566164    0.230883     0.004307
NI783   NI        0.081290    0.580954    0.274856     0.004307
AU784   AU        0.107309    0.524188    0.254175     0.007504
AU785   AU        0.151038    0.554604    0.240143     0.007504
AU786   AU        0.156683    0.520928    0.211072     0.007504
AU787   AU        0.160472    0.563212    0.286849     0.007504
NI788   NI        0.193867    0.539677    0.260613     0.004307
AU789   AU        0.188938    0.583976    0.236538     0.007504
NI790   NI        0.222579    0.546322    0.224451     0.004307
NI791   NI        0.231943    0.576307    0.258550     0.004307
NI792   NI        0.258539    0.526059    0.249705     0.004307
AU793   AU        0.268547    0.581058    0.224665     0.007504
NI794   NI        0.300136    0.543050    0.220442     0.004307
NI795   NI        0.281772    0.560083    0.268558     0.004307
AU796   AU        0.329161    0.547414    0.261680     0.007504
AU797   AU        0.334439    0.582328    0.224466     0.007504
NI798   NI        0.360341    0.544711    0.223292     0.004307
NI799   NI        0.360981    0.577762    0.266492     0.004307
AU800   AU        0.389708    0.538632    0.260455     0.007504
NI801   NI        0.421001    0.553843    0.204749     0.004307
NI802   NI        0.462627    0.538008    0.220057     0.004307
AU803   AU        0.430340    0.557490    0.253022     0.007504
NI804   NI        0.488400    0.540040    0.262919     0.004307
NI805   NI        0.491568    0.565648    0.201436     0.004307
NI806   NI        0.501764    0.523635    0.225037     0.004307
NI807   NI        0.517982    0.561717    0.241262     0.004307
NI808   NI        0.551997    0.517064    0.265549     0.004307
NI809   NI        0.574768    0.586417    0.216979     0.004307
NI810   NI        0.556922    0.539783    0.225552     0.004307
NI811   NI        0.597890    0.568014    0.248079     0.004307
NI812   NI        0.625443    0.533651    0.255512     0.004307
AU813   AU        0.651929    0.573074    0.228533     0.007504
AU814   AU        0.676648    0.536835    0.229910     0.007504
AU815   AU        0.678609    0.568998    0.266318     0.007504
NI816   NI        0.701234    0.533273    0.275915     0.004307
AU817   AU        0.700811    0.580304    0.226541     0.007504
AU818   AU        0.727212    0.540246    0.240620     0.007504
AU819   AU        0.731128    0.573025    0.270669     0.007504
AU820   AU        0.773460    0.521122    0.246356     0.007504
AU821   AU        0.769126    0.569561    0.235576     0.007504
NI822   NI        0.806663    0.543493    0.214676     0.004307
NI823   NI        0.825989    0.577688    0.228673     0.004307
NI824   NI        0.836146    0.517055    0.236695     0.004307
NI825   NI        0.083297    0.658002    0.290439     0.004307
NI826   NI        0.125956    0.585511    0.259300     0.004307
NI827   NI        0.110399    0.663596    0.247540     0.004307
AU828   AU        0.148741    0.599729    0.212165     0.007504
AU829   AU        0.147107    0.642886    0.248601     0.007504
NI830   NI        0.198494    0.589344    0.282204     0.004307
AU831   AU        0.190598    0.630588    0.252965     0.007504
AU832   AU        0.227639    0.613746    0.221005     0.007504
AU833   AU        0.237386    0.630758    0.269654     0.007504
NI834   NI        0.274512    0.604581    0.272103     0.004307
AU835   AU        0.264819    0.637808    0.230187     0.007504
NI836   NI        0.300557    0.616355    0.224710     0.004307
AU837   AU        0.299495    0.638343    0.265491     0.007504
NI838   NI        0.331655    0.606570    0.259785     0.004307
AU839   AU        0.338260    0.640542    0.228109     0.007504
NI840   NI        0.391775    0.573228    0.230428     0.004307
AU841   AU        0.368147    0.632876    0.266470     0.007504
NI842   NI        0.411788    0.609329    0.273244     0.004307
NI843   NI        0.429158    0.647320    0.218025     0.004307
NI844   NI        0.430111    0.603171    0.237259     0.004307
NI845   NI        0.477730    0.624647    0.251647     0.004307
NI846   NI        0.462667    0.613044    0.292963     0.004307
NI847   NI        0.480270    0.644456    0.212063     0.004307
NI848   NI        0.477850    0.579501    0.250999     0.004307
NI849   NI        0.527283    0.620685    0.247290     0.004307
NI850   NI        0.556348    0.575194    0.257478     0.004307
NI851   NI        0.552488    0.659459    0.229357     0.004307
NI852   NI        0.619241    0.602394    0.204992     0.004307
NI853   NI        0.584180    0.614877    0.264073     0.004307
AU854   AU        0.634579    0.582246    0.275514     0.007504
AU855   AU        0.621721    0.643596    0.233379     0.007504
AU856   AU        0.665062    0.613013    0.247002     0.007504
AU857   AU        0.682854    0.651379    0.267239     0.007504
AU858   AU        0.704728    0.609285    0.269570     0.007504
AU859   AU        0.707106    0.632261    0.227733     0.007504
AU860   AU        0.736895    0.581459    0.201418     0.007504
AU861   AU        0.735936    0.648695    0.266586     0.007504
AU862   AU        0.743400    0.609531    0.240025     0.007504
NI863   NI        0.780531    0.641895    0.241490     0.004307
NI864   NI        0.812101    0.625316    0.261246     0.004307
NI865   NI        0.128310    0.658750    0.289308     0.004307
AU866   AU        0.189334    0.653503    0.214834     0.007504
NI867   NI        0.194561    0.724385    0.249541     0.004307
AU868   AU        0.208576    0.676332    0.254819     0.007504
NI869   NI        0.168600    0.699964    0.219679     0.004307
NI870   NI        0.254440    0.690623    0.233860     0.004307
AU871   AU        0.236089    0.720106    0.258617     0.007504
AU872   AU        0.268663    0.669851    0.268900     0.007504
AU873   AU        0.281025    0.732249    0.246270     0.007504
AU874   AU        0.302097    0.676585    0.231767     0.007504
NI875   NI        0.300543    0.699628    0.270947     0.004307
AU876   AU        0.337724    0.673253    0.264297     0.007504
AU877   AU        0.344923    0.703485    0.223063     0.007504
AU878   AU        0.377900    0.670037    0.235201     0.007504
AU879   AU        0.375724    0.704349    0.263621     0.007504
NI880   NI        0.422941    0.676668    0.257683     0.004307
AU881   AU        0.416363    0.700979    0.213554     0.007504
AU882   AU        0.459914    0.697741    0.209567     0.007504
AU883   AU        0.452141    0.710835    0.252248     0.007504
NI884   NI        0.485929    0.680917    0.251231     0.004307
AU885   AU        0.488093    0.737272    0.232294     0.007504
AU886   AU        0.508811    0.685366    0.211242     0.007504
AU887   AU        0.536393    0.694942    0.253270     0.007504
AU888   AU        0.583806    0.670503    0.257799     0.007504
AU889   AU        0.546675    0.720166    0.213823     0.007504
AU890   AU        0.586057    0.688341    0.209501     0.007504
AU891   AU        0.582548    0.718644    0.252260     0.007504
AU892   AU        0.629223    0.660618    0.278159     0.007504
AU893   AU        0.626869    0.692051    0.239363     0.007504
AU894   AU        0.661748    0.657651    0.221200     0.007504
AU895   AU        0.664351    0.694754    0.263036     0.007504
AU896   AU        0.710628    0.690925    0.275605     0.007504
NI897   NI        0.710116    0.711594    0.209733     0.004307
NI898   NI        0.702783    0.679246    0.237006     0.004307
NI899   NI        0.747912    0.727498    0.277303     0.004307
NI900   NI        0.773793    0.679407    0.262108     0.004307
NI901   NI        0.262731    0.723808    0.205547     0.004307
NI902   NI        0.231741    0.732315    0.176012     0.004307
NI903   NI        0.213670    0.765579    0.254606     0.004307
NI904   NI        0.250072    0.768102    0.231132     0.004307
NI905   NI        0.277055    0.801948    0.183243     0.004307
AU906   AU        0.316459    0.744184    0.210147     0.007504
AU907   AU        0.303907    0.771773    0.249342     0.007504
AU908   AU        0.329242    0.728107    0.255508     0.007504
AU909   AU        0.348700    0.771212    0.240361     0.007504
AU910   AU        0.385442    0.736335    0.224322     0.007504
AU911   AU        0.393668    0.775380    0.261345     0.007504
AU912   AU        0.415006    0.737119    0.261818     0.007504
AU913   AU        0.407315    0.779894    0.219410     0.007504
AU914   AU        0.440307    0.745375    0.217020     0.007504
AU915   AU        0.464608    0.798958    0.271531     0.007504
AU916   AU        0.460829    0.757224    0.262383     0.007504
AU917   AU        0.473582    0.783301    0.223269     0.007504
AU918   AU        0.520977    0.763718    0.213335     0.007504
AU919   AU        0.501413    0.773072    0.259428     0.007504
AU920   AU        0.536226    0.745871    0.249853     0.007504
AU921   AU        0.574964    0.760645    0.218207     0.007504
AU922   AU        0.616830    0.731442    0.212745     0.007504
AU923   AU        0.576938    0.768821    0.264873     0.007504
AU924   AU        0.621623    0.740417    0.256337     0.007504
NI925   NI        0.629755    0.774993    0.232643     0.004307
AU926   AU        0.662282    0.733433    0.235867     0.007504
NI927   NI        0.659418    0.767667    0.269936     0.004307
NI928   NI        0.697806    0.732808    0.265969     0.004307
NI929   NI        0.253096    0.822051    0.289088     0.004307
NI930   NI        0.328456    0.811587    0.243951     0.004307
NI931   NI        0.375230    0.814216    0.235334     0.004307
NI932   NI        0.381641    0.850784    0.293147     0.004307
AU933   AU        0.415898    0.818740    0.276107     0.007504
NI934   NI        0.440983    0.817939    0.232514     0.004307
NI935   NI        0.405402    0.826349    0.204056     0.004307
NI936   NI        0.494712    0.820855    0.247201     0.004307
NI937   NI        0.510276    0.812099    0.211025     0.004307
NI938   NI        0.543427    0.840435    0.218728     0.004307
AU939   AU        0.539204    0.794280    0.250826     0.007504
NI940   NI        0.592582    0.850097    0.355939     0.004307
NI941   NI        0.296590    0.074804    0.324082     0.004307
NI942   NI        0.327993    0.089132    0.291677     0.004307
AU943   AU        0.367598    0.073679    0.340031     0.007504
NI944   NI        0.424277    0.046486    0.290871     0.004307
NI945   NI        0.407924    0.067887    0.321566     0.004307
NI946   NI        0.462562    0.068328    0.272217     0.004307
AU947   AU        0.515199    0.074175    0.328769     0.007504
NI948   NI        0.538449    0.036838    0.338454     0.004307
NI949   NI        0.563563    0.060101    0.313071     0.004307
NI950   NI        0.176618    0.161439    0.287961     0.004307
AU951   AU        0.254820    0.139160    0.329681     0.007504
AU952   AU        0.291752    0.112502    0.305980     0.007504
NI953   NI        0.251733    0.121583    0.280480     0.004307
NI954   NI        0.285251    0.080718    0.273296     0.004307
AU955   AU        0.302922    0.147832    0.332244     0.007504
AU956   AU        0.332086    0.107543    0.336044     0.007504
AU957   AU        0.336636    0.140246    0.296210     0.007504
AU958   AU        0.367451    0.106586    0.301502     0.007504
AU959   AU        0.368480    0.143573    0.335319     0.007504
AU960   AU        0.402988    0.107895    0.337407     0.007504
AU961   AU        0.407786    0.137466    0.297005     0.007504
AU962   AU        0.440663    0.100008    0.303818     0.007504
AU963   AU        0.442320    0.138920    0.334443     0.007504
AU964   AU        0.477199    0.105238    0.338558     0.007504
AU965   AU        0.477567    0.138671    0.299887     0.007504
AU966   AU        0.529041    0.095560    0.288403     0.007504
AU967   AU        0.517339    0.128665    0.325084     0.007504
AU968   AU        0.553373    0.102339    0.327735     0.007504
AU969   AU        0.558056    0.135481    0.290852     0.007504
NI970   NI        0.583928    0.101141    0.289909     0.004307
AU971   AU        0.593311    0.136405    0.327229     0.007504
NI972   NI        0.626389    0.105497    0.333483     0.004307
AU973   AU        0.629457    0.137837    0.295470     0.007504
AU974   AU        0.664529    0.142131    0.333020     0.007504
NI975   NI        0.702697    0.135898    0.299657     0.004307
NI976   NI        0.126020    0.185994    0.322752     0.004307
NI977   NI        0.148975    0.196362    0.276417     0.004307
AU978   AU        0.159307    0.213683    0.329443     0.007504
AU979   AU        0.192970    0.174475    0.327796     0.007504
AU980   AU        0.193755    0.203477    0.286610     0.007504
AU981   AU        0.232162    0.170285    0.297729     0.007504
AU982   AU        0.228439    0.206551    0.322949     0.007504
AU983   AU        0.269393    0.181731    0.330759     0.007504
AU984   AU        0.267312    0.203637    0.288549     0.007504
AU985   AU        0.306937    0.181813    0.294596     0.007504
NI986   NI        0.301368    0.215760    0.326198     0.004307
AU987   AU        0.341644    0.179100    0.329775     0.007504
NI988   NI        0.344307    0.216229    0.297739     0.004307
AU989   AU        0.375235    0.173657    0.292681     0.007504
NI990   NI        0.374104    0.212050    0.327868     0.004307
AU991   AU        0.405558    0.173171    0.331458     0.007504
NI992   NI        0.422733    0.222147    0.318784     0.004307
AU993   AU        0.431746    0.178569    0.290376     0.007504
NI994   NI        0.459964    0.225647    0.343559     0.004307
AU995   AU        0.467316    0.181014    0.324529     0.007504
NI996   NI        0.498378    0.216623    0.273286     0.004307
AU997   AU        0.510258    0.173511    0.302522     0.007504
NI998   NI        0.500169    0.219210    0.326999     0.004307
AU999   AU        0.553197    0.167744    0.324357     0.007504
NI1000   NI        0.537997    0.213488    0.306608     0.004307
AU1001   AU        0.592118    0.169712    0.287497     0.007504
AU1002   AU        0.574678    0.210424    0.336263     0.007504
AU1003   AU        0.626111    0.173132    0.327495     0.007504
AU1004   AU        0.630159    0.203146    0.287767     0.007504
AU1005   AU        0.669515    0.170368    0.293559     0.007504
AU1006   AU        0.661161    0.206541    0.328244     0.007504
AU1007   AU        0.701360    0.174954    0.331843     0.007504
AU1008   AU        0.700264    0.210018    0.297943     0.007504
NI1009   NI        0.747568    0.191406    0.310548     0.004307
AU1010   AU        0.732330    0.217088    0.340765     0.007504
NI1011   NI        0.785587    0.233121    0.272953     0.004307
NI1012   NI        0.111533    0.273141    0.329697     0.004307
NI1013   NI        0.116936    0.233720    0.345563     0.004307
AU1014   AU        0.120201    0.272875    0.281487     0.007504
AU1015   AU        0.161949    0.242287    0.289516     0.007504
AU1016   AU        0.168437    0.287202    0.329826     0.007504
AU1017   AU        0.196239    0.246159    0.325843     0.007504
AU1018   AU        0.197049    0.278859    0.289137     0.007504
AU1019   AU        0.231575    0.240519    0.287928     0.007504
NI1020   NI        0.235413    0.276596    0.327919     0.004307
AU1021   AU        0.266750    0.240170    0.322445     0.007504
NI1022   NI        0.255641    0.279916    0.289214     0.004307
AU1023   AU        0.307802    0.234952    0.289415     0.007504
NI1024   NI        0.306569    0.274797    0.317375     0.004307
NI1025   NI        0.339338    0.247877    0.326399     0.004307
NI1026   NI        0.344304    0.268093    0.286092     0.004307
NI1027   NI        0.384042    0.227951    0.287965     0.004307
NI1028   NI        0.376150    0.267919    0.314000     0.004307
NI1029   NI        0.419898    0.244475    0.367234     0.004307
NI1030   NI        0.417015    0.265547    0.295362     0.004307
NI1031   NI        0.458159    0.213849    0.290598     0.004307
NI1032   NI        0.450951    0.289304    0.328535     0.004307
NI1033   NI        0.468151    0.251184    0.310087     0.004307
NI1034   NI        0.458091    0.282925    0.283796     0.004307
NI1035   NI        0.519951    0.253697    0.268962     0.004307
NI1036   NI        0.504812    0.284493    0.324553     0.004307
AU1037   AU        0.535756    0.250219    0.334398     0.007504
NI1038   NI        0.555814    0.262061    0.290247     0.004307
AU1039   AU        0.585225    0.227285    0.290754     0.007504
NI1040   NI        0.580408    0.262988    0.322200     0.004307
AU1041   AU        0.621048    0.236031    0.325151     0.007504
AU1042   AU        0.619565    0.269690    0.291295     0.007504
AU1043   AU        0.660549    0.241053    0.293683     0.007504
AU1044   AU        0.647644    0.272134    0.333773     0.007504
AU1045   AU        0.691906    0.247110    0.333160     0.007504
AU1046   AU        0.691368    0.283543    0.301236     0.007504
AU1047   AU        0.729178    0.251607    0.301749     0.007504
AU1048   AU        0.722700    0.286014    0.338299     0.007504
NI1049   NI        0.775943    0.230407    0.323499     0.004307
AU1050   AU        0.774165    0.274110    0.290613     0.007504
NI1051   NI        0.819737    0.260245    0.311364     0.004307
NI1052   NI        0.052001    0.288613    0.351736     0.004307
NI1053   NI        0.061718    0.352654    0.294891     0.004307
AU1054   AU        0.095653    0.313764    0.296965     0.007504
AU1055   AU        0.088115    0.348520    0.334806     0.007504
AU1056   AU        0.121861    0.313055    0.341971     0.007504
AU1057   AU        0.132514    0.346545    0.303982     0.007504
AU1058   AU        0.160257    0.311425    0.283665     0.007504
NI1059   NI        0.155014    0.350002    0.341600     0.004307
NI1060   NI        0.207267    0.315341    0.332974     0.004307
NI1061   NI        0.181571    0.345625    0.294779     0.004307
NI1062   NI        0.229383    0.317301    0.292879     0.004307
NI1063   NI        0.240780    0.338952    0.338111     0.004307
NI1064   NI        0.276885    0.294200    0.337419     0.004307
NI1065   NI        0.267987    0.366105    0.272475     0.004307
AU1066   AU        0.293141    0.321082    0.300949     0.007504
AU1067   AU        0.315350    0.333509    0.347304     0.007504
AU1068   AU        0.346352    0.309874    0.313652     0.007504
NI1069   NI        0.327501    0.347932    0.301416     0.004307
NI1070   NI        0.383905    0.304067    0.284485     0.004307
NI1071   NI        0.380745    0.340090    0.315749     0.004307
NI1072   NI        0.402195    0.298285    0.323065     0.004307
NI1073   NI        0.409000    0.370659    0.293538     0.004307
NI1074   NI        0.420715    0.326516    0.297880     0.004307
NI1075   NI        0.486558    0.355759    0.324340     0.004307
NI1076   NI        0.481224    0.321932    0.346753     0.004307
NI1077   NI        0.485140    0.320959    0.302456     0.004307
NI1078   NI        0.532069    0.307945    0.283368     0.004307
NI1079   NI        0.527444    0.385260    0.300822     0.004307
AU1080   AU        0.550467    0.295747    0.329726     0.007504
NI1081   NI        0.555211    0.350449    0.307618     0.004307
NI1082   NI        0.579993    0.307334    0.286549     0.004307
NI1083   NI        0.592803    0.358470    0.350478     0.004307
NI1084   NI        0.598235    0.303907    0.348026     0.004307
NI1085   NI        0.602980    0.327015    0.315165     0.004307
AU1086   AU        0.647693    0.311272    0.302239     0.007504
NI1087   NI        0.638300    0.338330    0.347405     0.004307
NI1088   NI        0.680764    0.314330    0.338373     0.004307
NI1089   NI        0.661654    0.363823    0.322072     0.004307
AU1090   AU        0.737410    0.306995    0.294590     0.007504
NI1091   NI        0.708984    0.343489    0.313845     0.004307
AU1092   AU        0.768922    0.309016    0.329987     0.007504
AU1093   AU        0.771687    0.342102    0.294291     0.007504
NI1094   NI        0.811582    0.312930    0.288964     0.004307
AU1095   AU        0.806739    0.339309    0.332105     0.007504
NI1096   NI        0.840212    0.301543    0.390564     0.004307
NI1097   NI        0.841780    0.358634    0.289141     0.004307
NI1098   NI        0.057772    0.382801    0.358303     0.004307
AU1099   AU        0.072453    0.429353    0.316039     0.007504
AU1100   AU        0.098261    0.387430    0.304919     0.007504
AU1101   AU        0.090254    0.424633    0.358136     0.007504
AU1102   AU        0.119679    0.389266    0.348824     0.007504
AU1103   AU        0.125497    0.429012    0.321791     0.007504
AU1104   AU        0.152154    0.394467    0.315521     0.007504
NI1105   NI        0.175795    0.419080    0.352665     0.004307
NI1106   NI        0.192305    0.376996    0.331457     0.004307
NI1107   NI        0.190627    0.424715    0.309451     0.004307
NI1108   NI        0.227020    0.365060    0.306280     0.004307
NI1109   NI        0.228984    0.442676    0.312707     0.004307
NI1110   NI        0.278770    0.354563    0.325628     0.004307
NI1111   NI        0.257722    0.409187    0.312863     0.004307
NI1112   NI        0.292600    0.387048    0.301069     0.004307
NI1113   NI        0.291952    0.407807    0.338119     0.004307
NI1114   NI        0.331563    0.377352    0.331462     0.004307
NI1115   NI        0.349834    0.416194    0.300677     0.004307
NI1116   NI        0.372781    0.381232    0.308499     0.004307
NI1117   NI        0.376490    0.417770    0.340001     0.004307
NI1118   NI        0.416964    0.399846    0.336384     0.004307
NI1119   NI        0.379092    0.432966    0.278123     0.004307
NI1120   NI        0.456454    0.386998    0.311865     0.004307
NI1121   NI        0.455991    0.417243    0.346981     0.004307
NI1122   NI        0.496928    0.399322    0.331638     0.004307
NI1123   NI        0.480230    0.437073    0.307371     0.004307
NI1124   NI        0.514312    0.392997    0.256131     0.004307
NI1125   NI        0.530705    0.429543    0.330902     0.004307
NI1126   NI        0.575297    0.390090    0.325563     0.004307
AU1127   AU        0.550123    0.419906    0.281765     0.007504
NI1128   NI        0.628938    0.378119    0.301855     0.004307
NI1129   NI        0.579193    0.429059    0.340726     0.004307
NI1130   NI        0.611534    0.398738    0.345088     0.004307
NI1131   NI        0.621785    0.425201    0.289144     0.004307
NI1132   NI        0.661359    0.397528    0.282056     0.004307
NI1133   NI        0.662694    0.430279    0.317790     0.004307
NI1134   NI        0.703610    0.388418    0.329430     0.004307
AU1135   AU        0.704513    0.415661    0.290599     0.007504
AU1136   AU        0.738655    0.379052    0.290401     0.007504
AU1137   AU        0.741393    0.417897    0.325347     0.007504
AU1138   AU        0.769320    0.376307    0.331520     0.007504
AU1139   AU        0.774941    0.419203    0.289183     0.007504
AU1140   AU        0.800736    0.375869    0.294488     0.007504
AU1141   AU        0.804831    0.415603    0.329047     0.007504
NI1142   NI        0.847477    0.371121    0.341771     0.004307
NI1143   NI        0.837815    0.410822    0.292718     0.004307
NI1144   NI        0.053408    0.470738    0.304828     0.004307
AU1145   AU        0.078302    0.497931    0.281169     0.007504
AU1146   AU        0.099972    0.463917    0.300995     0.007504
AU1147   AU        0.082244    0.502353    0.330312     0.007504
AU1148   AU        0.116918    0.466540    0.341177     0.007504
AU1149   AU        0.123548    0.501952    0.300499     0.007504
NI1150   NI        0.155418    0.474944    0.284785     0.004307
NI1151   NI        0.154152    0.501822    0.338707     0.004307
NI1152   NI        0.184804    0.459943    0.379888     0.004307
NI1153   NI        0.195854    0.467198    0.296236     0.004307
NI1154   NI        0.234249    0.462080    0.268738     0.004307
AU1155   AU        0.247387    0.487579    0.324874     0.007504
AU1156   AU        0.281027    0.451118    0.337826     0.007504
NI1157   NI        0.273122    0.492972    0.284590     0.004307
NI1158   NI        0.291106    0.431996    0.284472     0.004307
AU1159   AU        0.310446    0.487180    0.335980     0.007504
AU1160   AU        0.331460    0.441875    0.335315     0.007504
AU1161   AU        0.331759    0.508767    0.294006     0.007504
NI1162   NI        0.387341    0.474178    0.258581     0.004307
AU1163   AU        0.360776    0.484465    0.330803     0.007504
NI1164   NI        0.392224    0.454416    0.321059     0.004307
AU1165   AU        0.429550    0.479932    0.294029     0.007504
NI1166   NI        0.434110    0.422420    0.304905     0.004307
NI1167   NI        0.435840    0.456450    0.333040     0.004307
NI1168   NI        0.511113    0.448413    0.360916     0.004307
NI1169   NI        0.480371    0.481014    0.302260     0.004307
NI1170   NI        0.525970    0.466326    0.310530     0.004307
NI1171   NI        0.499364    0.522597    0.310080     0.004307
NI1172   NI        0.563890    0.481706    0.327294     0.004307
NI1173   NI        0.542572    0.514301    0.311191     0.004307
NI1174   NI        0.581394    0.453407    0.297519     0.004307
NI1175   NI        0.611138    0.494204    0.332641     0.004307
NI1176   NI        0.621715    0.449101    0.325565     0.004307
NI1177   NI        0.636222    0.499320    0.293667     0.004307
NI1178   NI        0.671921    0.465793    0.297740     0.004307
NI1179   NI        0.672175    0.505187    0.322170     0.004307
AU1180   AU        0.703368    0.454000    0.325825     0.007504
AU1181   AU        0.706127    0.492632    0.294366     0.007504
AU1182   AU        0.739876    0.454040    0.292327     0.007504
AU1183   AU        0.739509    0.491728    0.329838     0.007504
AU1184   AU        0.775486    0.453449    0.328759     0.007504
AU1185   AU        0.775159    0.491172    0.289681     0.007504
AU1186   AU        0.808210    0.452443    0.292078     0.007504
AU1187   AU        0.804327    0.485958    0.327882     0.007504
NI1188   NI        0.834296    0.450760    0.328557     0.004307
NI1189   NI        0.836834    0.490864    0.289751     0.004307
NI1190   NI        0.051049    0.540577    0.357760     0.004307
NI1191   NI        0.066410    0.536293    0.252703     0.004307
AU1192   AU        0.091582    0.540743    0.298948     0.007504
AU1193   AU        0.084369    0.571970    0.340136     0.007504
AU1194   AU        0.125503    0.539255    0.327063     0.007504
AU1195   AU        0.115947    0.581627    0.304974     0.007504
NI1196   NI        0.177055    0.514682    0.298759     0.004307
AU1197   AU        0.154155    0.583907    0.332718     0.007504
NI1198   NI        0.194334    0.530830    0.346770     0.004307
NI1199   NI        0.200578    0.556634    0.312752     0.004307
NI1200   NI        0.226019    0.504598    0.281307     0.004307
NI1201   NI        0.227852    0.574261    0.342921     0.004307
AU1202   AU        0.277873    0.525255    0.336854     0.007504
NI1203   NI        0.247714    0.554714    0.301510     0.004307
NI1204   NI        0.301886    0.538092    0.296706     0.004307
AU1205   AU        0.306315    0.565843    0.341844     0.007504
AU1206   AU        0.339278    0.526906    0.336243     0.007504
NI1207   NI        0.330735    0.570887    0.302212     0.004307
AU1208   AU        0.365721    0.547289    0.298530     0.007504
AU1209   AU        0.384617    0.579516    0.337730     0.007504
NI1210   NI        0.387255    0.527431    0.339049     0.004307
AU1211   AU        0.406324    0.571874    0.294830     0.007504
AU1212   AU        0.415354    0.526363    0.296518     0.007504
NI1213   NI        0.432695    0.548128    0.339240     0.004307
NI1214   NI        0.448157    0.508452    0.359872     0.004307
NI1215   NI        0.459457    0.550460    0.296052     0.004307
NI1216   NI        0.455468    0.511503    0.315996     0.004307
NI1217   NI        0.502027    0.568826    0.318194     0.004307
NI1218   NI        0.562268    0.560060    0.374308     0.004307
NI1219   NI        0.545505    0.550977    0.289945     0.004307
NI1220   NI        0.576870    0.535654    0.320560     0.004307
NI1221   NI        0.599005    0.572184    0.353420     0.004307
NI1222   NI        0.637730    0.532511    0.339543     0.004307
AU1223   AU        0.612257    0.543337    0.297867     0.007504
AU1224   AU        0.656927    0.548817    0.297094     0.007504
AU1225   AU        0.674460    0.567250    0.341566     0.007504
AU1226   AU        0.709097    0.529937    0.325467     0.007504
AU1227   AU        0.702035    0.570441    0.306113     0.007504
AU1228   AU        0.740441    0.528132    0.288702     0.007504
AU1229   AU        0.747272    0.566980    0.319250     0.007504
AU1230   AU        0.777801    0.529555    0.321184     0.007504
AU1231   AU        0.774598    0.553299    0.278083     0.007504
AU1232   AU        0.812318    0.524967    0.281631     0.007504
AU1233   AU        0.802197    0.568006    0.321695     0.007504
AU1234   AU        0.831550    0.528802    0.325989     0.007504
NI1235   NI        0.817437    0.575891    0.270330     0.004307
NI1236   NI        0.050174    0.557647    0.316984     0.004307
NI1237   NI        0.073879    0.611858    0.314073     0.004307
NI1238   NI        0.106925    0.662292    0.323346     0.004307
AU1239   AU        0.117813    0.617120    0.334146     0.007504
NI1240   NI        0.109626    0.621569    0.279018     0.004307
AU1241   AU        0.150125    0.611815    0.290182     0.007504
AU1242   AU        0.152003    0.645943    0.324816     0.007504
AU1243   AU        0.195919    0.609946    0.348546     0.007504
AU1244   AU        0.198365    0.631057    0.302822     0.007504
NI1245   NI        0.236580    0.608218    0.305829     0.004307
AU1246   AU        0.232687    0.639667    0.344857     0.007504
AU1247   AU        0.270462    0.602162    0.341496     0.007504
AU1248   AU        0.268535    0.639021    0.307363     0.007504
NI1249   NI        0.306558    0.605136    0.303630     0.004307
AU1250   AU        0.303823    0.641395    0.342314     0.007504
AU1251   AU        0.337208    0.602947    0.342155     0.007504
AU1252   AU        0.335547    0.638995    0.302817     0.007504
NI1253   NI        0.367156    0.599943    0.303763     0.004307
AU1254   AU        0.379727    0.630572    0.330093     0.007504
AU1255   AU        0.421709    0.588541    0.368256     0.007504
NI1256   NI        0.416490    0.649299    0.293248     0.004307
AU1257   AU        0.424561    0.619000    0.327079     0.007504
NI1258   NI        0.458220    0.651334    0.316184     0.004307
NI1259   NI        0.487185    0.617679    0.337811     0.004307
NI1260   NI        0.543052    0.653998    0.282518     0.004307
NI1261   NI        0.519960    0.580823    0.280366     0.004307
NI1262   NI        0.537612    0.607929    0.368104     0.004307
NI1263   NI        0.547563    0.583537    0.328459     0.004307
NI1264   NI        0.549156    0.611909    0.294732     0.004307
AU1265   AU        0.583967    0.576881    0.295682     0.007504
NI1266   NI        0.580759    0.612042    0.336936     0.004307
AU1267   AU        0.629793    0.582324    0.323309     0.007504
NI1268   NI        0.615508    0.618756    0.298561     0.004307
AU1269   AU        0.671336    0.604111    0.305557     0.007504
AU1270   AU        0.669651    0.644605    0.340466     0.007504
NI1271   NI        0.704704    0.608329    0.335461     0.004307
AU1272   AU        0.706107    0.646247    0.304372     0.007504
AU1273   AU        0.738869    0.608779    0.298594     0.007504
AU1274   AU        0.740599    0.643037    0.334360     0.007504
AU1275   AU        0.774491    0.606835    0.326314     0.007504
AU1276   AU        0.776304    0.645837    0.296835     0.007504
AU1277   AU        0.773560    0.603903    0.273000     0.007504
NI1278   NI        0.811500    0.643020    0.332964     0.004307
NI1279   NI        0.844958    0.622056    0.349683     0.004307
NI1280   NI        0.108965    0.696727    0.350409     0.004307
NI1281   NI        0.146285    0.740554    0.301983     0.004307
AU1282   AU        0.172268    0.666399    0.283544     0.007504
AU1283   AU        0.149671    0.696114    0.318060     0.007504
AU1284   AU        0.191967    0.672356    0.332603     0.007504
AU1285   AU        0.195234    0.704274    0.295929     0.007504
AU1286   AU        0.230849    0.670630    0.301385     0.007504
AU1287   AU        0.227997    0.707374    0.333082     0.007504
AU1288   AU        0.267643    0.677074    0.340490     0.007504
AU1289   AU        0.265076    0.708906    0.300481     0.007504
AU1290   AU        0.302926    0.674096    0.304067     0.007504
AU1291   AU        0.303933    0.714010    0.331963     0.007504
AU1292   AU        0.338788    0.677939    0.337824     0.007504
AU1293   AU        0.339710    0.710611    0.298645     0.007504
AU1294   AU        0.372872    0.671442    0.301345     0.007504
AU1295   AU        0.377755    0.710353    0.332248     0.007504
AU1296   AU        0.411939    0.668527    0.331846     0.007504
AU1297   AU        0.412518    0.704000    0.299189     0.007504
NI1298   NI        0.459320    0.680940    0.286862     0.004307
NI1299   NI        0.453674    0.691298    0.328571     0.004307
NI1300   NI        0.503802    0.669955    0.326974     0.004307
AU1301   AU        0.497221    0.727264    0.273688     0.007504
NI1302   NI        0.513843    0.689126    0.290258     0.004307
NI1303   NI        0.541767    0.688792    0.331081     0.004307
NI1304   NI        0.529097    0.624193    0.328658     0.004307
AU1305   AU        0.563405    0.700332    0.292296     0.007504
NI1306   NI        0.588536    0.661020    0.303197     0.004307
AU1307   AU        0.587450    0.699239    0.330516     0.007504
AU1308   AU        0.633415    0.681362    0.334283     0.007504
AU1309   AU        0.613842    0.705468    0.288947     0.007504
AU1310   AU        0.671950    0.680342    0.304969     0.007504
AU1311   AU        0.671826    0.717934    0.338132     0.007504
AU1312   AU        0.707748    0.680915    0.337394     0.007504
AU1313   AU        0.710166    0.722404    0.308942     0.007504
AU1314   AU        0.743443    0.682415    0.302565     0.007504
AU1315   AU        0.744685    0.718053    0.337993     0.007504
NI1316   NI        0.775932    0.677054    0.336727     0.004307
NI1317   NI        0.745272    0.702838    0.239671     0.004307
NI1318   NI        0.151877    0.712730    0.263995     0.004307
AU1319   AU        0.188029    0.738036    0.328941     0.007504
NI1320   NI        0.183651    0.749384    0.281972     0.004307
AU1321   AU        0.229338    0.747120    0.298820     0.007504
NI1322   NI        0.244918    0.782776    0.321680     0.004307
AU1323   AU        0.266061    0.745873    0.330602     0.007504
AU1324   AU        0.270729    0.770863    0.284310     0.007504
AU1325   AU        0.300188    0.739201    0.291716     0.007504
AU1326   AU        0.300904    0.773711    0.321660     0.007504
AU1327   AU        0.342447    0.747820    0.331119     0.007504
AU1328   AU        0.336143    0.764551    0.286303     0.007504
AU1329   AU        0.379669    0.742937    0.295029     0.007504
AU1330   AU        0.384656    0.780569    0.326270     0.007504
AU1331   AU        0.415193    0.743468    0.327961     0.007504
AU1332   AU        0.431759    0.774770    0.292627     0.007504
AU1333   AU        0.455251    0.728468    0.302012     0.007504
AU1334   AU        0.433393    0.779724    0.342107     0.007504
NI1335   NI        0.495661    0.716864    0.317931     0.004307
AU1336   AU        0.487358    0.766938    0.305074     0.007504
AU1337   AU        0.533563    0.758253    0.291052     0.007504
AU1338   AU        0.526607    0.787105    0.329488     0.007504
AU1339   AU        0.553273    0.736991    0.332208     0.007504
AU1340   AU        0.563682    0.800228    0.298582     0.007504
AU1341   AU        0.583904    0.739978    0.301436     0.007504
AU1342   AU        0.589671    0.774797    0.333813     0.007504
AU1343   AU        0.624948    0.731899    0.330720     0.007504
AU1344   AU        0.622388    0.767018    0.294157     0.007504
AU1345   AU        0.657469    0.732842    0.293292     0.007504
AU1346   AU        0.659197    0.769557    0.327330     0.007504
AU1347   AU        0.707925    0.757272    0.336712     0.007504
NI1348   NI        0.696397    0.802756    0.325316     0.004307
NI1349   NI        0.715221    0.766289    0.288740     0.004307
NI1350   NI        0.291244    0.816079    0.323647     0.004307
NI1351   NI        0.305931    0.804031    0.285308     0.004307
NI1352   NI        0.347234    0.846429    0.317699     0.004307
AU1353   AU        0.337647    0.796867    0.327247     0.007504
NI1354   NI        0.348407    0.842923    0.268968     0.004307
AU1355   AU        0.368854    0.803260    0.285301     0.007504
NI1356   NI        0.376760    0.871122    0.341987     0.004307
AU1357   AU        0.412509    0.820220    0.319947     0.007504
NI1358   NI        0.453474    0.848605    0.285885     0.004307
AU1359   AU        0.460201    0.806191    0.318400     0.007504
NI1360   NI        0.451860    0.852991    0.333842     0.004307
AU1361   AU        0.489974    0.830813    0.350929     0.007504
NI1362   NI        0.498384    0.846837    0.306885     0.004307
AU1363   AU        0.511490    0.805796    0.292112     0.007504
NI1364   NI        0.515720    0.865939    0.357074     0.004307
AU1365   AU        0.536941    0.833031    0.332311     0.007504
NI1366   NI        0.549737    0.841547    0.278089     0.004307
NI1367   NI        0.608643    0.814420    0.307098     0.004307
NI1368   NI        0.576701    0.843013    0.317179     0.004307
NI1369   NI        0.607602    0.809655    0.262495     0.004307
NI1370   NI        0.212606    0.089430    0.402651     0.004307
NI1371   NI        0.290461    0.074378    0.394307     0.004307
NI1372   NI        0.319462    0.062239    0.355328     0.004307
AU1373   AU        0.363306    0.066752    0.391158     0.007504
NI1374   NI        0.356179    0.036916    0.431817     0.004307
AU1375   AU        0.406217    0.069593    0.371797     0.007504
NI1376   NI        0.421857    0.026944    0.415008     0.004307
AU1377   AU        0.446748    0.069288    0.402417     0.007504
NI1378   NI        0.456033    0.027750    0.453045     0.004307
AU1379   AU        0.479925    0.072419    0.366162     0.007504
AU1380   AU        0.514085    0.072127    0.403299     0.007504
NI1381   NI        0.552897    0.066420    0.368097     0.004307
NI1382   NI        0.586338    0.070950    0.403011     0.004307
NI1383   NI        0.618078    0.069375    0.367191     0.004307
NI1384   NI        0.187180    0.126706    0.383131     0.004307
NI1385   NI        0.139866    0.170886    0.400472     0.004307
NI1386   NI        0.207383    0.130774    0.328831     0.004307
NI1387   NI        0.233539    0.114603    0.360410     0.004307
AU1388   AU        0.229910    0.141013    0.398430     0.007504
NI1389   NI        0.259199    0.102822    0.396825     0.004307
AU1390   AU        0.273380    0.150910    0.373950     0.007504
AU1391   AU        0.285571    0.110762    0.357273     0.007504
AU1392   AU        0.302972    0.142322    0.413339     0.007504
AU1393   AU        0.327491    0.103169    0.387618     0.007504
AU1394   AU        0.327897    0.147482    0.368247     0.007504
AU1395   AU        0.368615    0.110084    0.372319     0.007504
NI1396   NI        0.356927    0.141698    0.400232     0.004307
AU1397   AU        0.408394    0.106443    0.398646     0.007504
AU1398   AU        0.404971    0.144380    0.369552     0.007504
AU1399   AU        0.442821    0.107321    0.371298     0.007504
AU1400   AU        0.444789    0.142877    0.396923     0.007504
AU1401   AU        0.481765    0.108305    0.401745     0.007504
AU1402   AU        0.481463    0.137725    0.366469     0.007504
AU1403   AU        0.520215    0.104524    0.366095     0.007504
AU1404   AU        0.520263    0.142154    0.400179     0.007504
AU1405   AU        0.555454    0.103288    0.403352     0.007504
AU1406   AU        0.556702    0.139018    0.362656     0.007504
AU1407   AU        0.587412    0.104883    0.364747     0.007504
AU1408   AU        0.590381    0.139210    0.401957     0.007504
AU1409   AU        0.623113    0.100720    0.401086     0.007504
AU1410   AU        0.624300    0.142271    0.365162     0.007504
NI1411   NI        0.668166    0.094587    0.381864     0.004307
AU1412   AU        0.661028    0.134063    0.401000     0.007504
NI1413   NI        0.705117    0.100093    0.412622     0.004307
NI1414   NI        0.700750    0.143907    0.366223     0.004307
NI1415   NI        0.725628    0.137856    0.415611     0.004307
NI1416   NI        0.084348    0.224060    0.446016     0.004307
NI1417   NI        0.136239    0.149819    0.360788     0.004307
NI1418   NI        0.132273    0.204534    0.369871     0.004307
NI1419   NI        0.167658    0.178321    0.366799     0.004307
AU1420   AU        0.163432    0.212513    0.400024     0.007504
AU1421   AU        0.200875    0.178134    0.400833     0.007504
AU1422   AU        0.196094    0.211312    0.362652     0.007504
AU1423   AU        0.232297    0.173494    0.359646     0.007504
AU1424   AU        0.232131    0.211181    0.399550     0.007504
AU1425   AU        0.277940    0.186390    0.410292     0.007504
AU1426   AU        0.263184    0.212358    0.362276     0.007504
AU1427   AU        0.306111    0.187312    0.367261     0.007504
NI1428   NI        0.310684    0.212541    0.404437     0.004307
AU1429   AU        0.335275    0.178864    0.408377     0.007504
NI1430   NI        0.340766    0.221378    0.368540     0.004307
AU1431   AU        0.370165    0.181432    0.370422     0.007504
NI1432   NI        0.356174    0.223739    0.418854     0.004307
NI1433   NI        0.414521    0.184696    0.394793     0.004307
NI1434   NI        0.382555    0.220406    0.379115     0.004307
NI1435   NI        0.445589    0.173492    0.364496     0.004307
NI1436   NI        0.449460    0.220357    0.390521     0.004307
NI1437   NI        0.463319    0.183223    0.401467     0.004307
NI1438   NI        0.489592    0.209175    0.372041     0.004307
NI1439   NI        0.509657    0.171791    0.354004     0.004307
NI1440   NI        0.519727    0.210576    0.404461     0.004307
AU1441   AU        0.556865    0.176605    0.401643     0.007504
NI1442   NI        0.541206    0.200173    0.364155     0.004307
AU1443   AU        0.591383    0.171940    0.363042     0.007504
NI1444   NI        0.596641    0.206881    0.404358     0.004307
AU1445   AU        0.628076    0.172642    0.404217     0.007504
AU1446   AU        0.619659    0.205741    0.366415     0.007504
AU1447   AU        0.660451    0.174428    0.367878     0.007504
AU1448   AU        0.652765    0.209648    0.401940     0.007504
AU1449   AU        0.691140    0.174039    0.404040     0.007504
AU1450   AU        0.690541    0.209366    0.367917     0.007504
NI1451   NI        0.732498    0.182494    0.376619     0.004307
AU1452   AU        0.723371    0.212911    0.406776     0.007504
NI1453   NI        0.767822    0.182299    0.413167     0.004307
NI1454   NI        0.766362    0.218968    0.373537     0.004307
NI1455   NI        0.815638    0.222290    0.416050     0.004307
NI1456   NI        0.081952    0.256208    0.374708     0.004307
NI1457   NI        0.081264    0.216970    0.394358     0.004307
NI1458   NI        0.088746    0.273058    0.415886     0.004307
NI1459   NI        0.118827    0.237176    0.399517     0.004307
AU1460   AU        0.121649    0.276813    0.375729     0.007504
AU1461   AU        0.161769    0.251299    0.364041     0.007504
AU1462   AU        0.158790    0.279140    0.408393     0.007504
AU1463   AU        0.192932    0.243956    0.401697     0.007504
AU1464   AU        0.195746    0.285832    0.373941     0.007504
AU1465   AU        0.224656    0.244395    0.364019     0.007504
AU1466   AU        0.232965    0.272624    0.404321     0.007504
NI1467   NI        0.268323    0.234931    0.401352     0.004307
NI1468   NI        0.265719    0.264139    0.363961     0.004307
NI1469   NI        0.302319    0.233976    0.366018     0.004307
NI1470   NI        0.301882    0.258938    0.406561     0.004307
NI1471   NI        0.342542    0.261751    0.383678     0.004307
NI1472   NI        0.348617    0.294311    0.351495     0.004307
NI1473   NI        0.376180    0.256145    0.354476     0.004307
NI1474   NI        0.390436    0.261803    0.404475     0.004307
NI1475   NI        0.432464    0.259052    0.419571     0.004307
NI1476   NI        0.412541    0.286531    0.381466     0.004307
NI1477   NI        0.451882    0.269079    0.372040     0.004307
NI1478   NI        0.445397    0.298580    0.410082     0.004307
NI1479   NI        0.482878    0.246603    0.413278     0.004307
NI1480   NI        0.487205    0.257644    0.350623     0.004307
NI1481   NI        0.520824    0.239533    0.373902     0.004307
NI1482   NI        0.487301    0.291368    0.394331     0.004307
AU1483   AU        0.532546    0.259886    0.412164     0.007504
AU1484   AU        0.526121    0.290429    0.367766     0.007504
NI1485   NI        0.564484    0.238442    0.374294     0.004307
NI1486   NI        0.566995    0.284587    0.394247     0.004307
NI1487   NI        0.607696    0.251914    0.363387     0.004307
NI1488   NI        0.630103    0.290474    0.375938     0.004307
AU1489   AU        0.654159    0.239280    0.363047     0.007504
NI1490   NI        0.648333    0.266476    0.403756     0.004307
AU1491   AU        0.688813    0.250998    0.396747     0.007504
NI1492   NI        0.679091    0.283753    0.371035     0.004307
AU1493   AU        0.724882    0.248700    0.372079     0.007504
AU1494   AU        0.734223    0.293526    0.388506     0.007504
AU1495   AU        0.763910    0.249383    0.403864     0.007504
AU1496   AU        0.762005    0.262441    0.351809     0.007504
NI1497   NI        0.797212    0.244830    0.370654     0.004307
NI1498   NI        0.814446    0.267454    0.420722     0.004307
NI1499   NI        0.843580    0.255002    0.370521     0.004307
NI1500   NI        0.020834    0.353571    0.420266     0.004307
NI1501   NI        0.050894    0.388703    0.318499     0.004307
AU1502   AU        0.085108    0.316105    0.375000     0.007504
AU1503   AU        0.087715    0.350431    0.413733     0.007504
AU1504   AU        0.121047    0.314591    0.411062     0.007504
AU1505   AU        0.121846    0.351253    0.375864     0.007504
AU1506   AU        0.154268    0.311839    0.374861     0.007504
AU1507   AU        0.161392    0.346564    0.409046     0.007504
AU1508   AU        0.196219    0.317016    0.409464     0.007504
NI1509   NI        0.193852    0.341707    0.371146     0.004307
NI1510   NI        0.239895    0.302717    0.366383     0.004307
NI1511   NI        0.238865    0.340391    0.390238     0.004307
NI1512   NI        0.272413    0.298743    0.399780     0.004307
NI1513   NI        0.273492    0.331846    0.366112     0.004307
NI1514   NI        0.307719    0.295957    0.364661     0.004307
NI1515   NI        0.283864    0.365115    0.411042     0.004307
NI1516   NI        0.370923    0.300881    0.402563     0.004307
NI1517   NI        0.311266    0.334891    0.389333     0.004307
NI1518   NI        0.377791    0.325815    0.358492     0.004307
NI1519   NI        0.351159    0.337916    0.401155     0.004307
NI1520   NI        0.411844    0.322977    0.400430     0.004307
NI1521   NI        0.422555    0.357294    0.333199     0.004307
NI1522   NI        0.436382    0.318254    0.361623     0.004307
NI1523   NI        0.444800    0.353589    0.387761     0.004307
AU1524   AU        0.484079    0.327620    0.420251     0.007504
AU1525   AU        0.508876    0.339633    0.377225     0.007504
NI1526   NI        0.522249    0.328428    0.336926     0.004307
AU1527   AU        0.519176    0.360793    0.426101     0.007504
AU1528   AU        0.528391    0.310846    0.412964     0.007504
NI1529   NI        0.542603    0.374414    0.350313     0.004307
NI1530   NI        0.557769    0.324336    0.370895     0.004307
NI1531   NI        0.560053    0.365484    0.397109     0.004307
NI1532   NI        0.600234    0.327474    0.394471     0.004307
NI1533   NI        0.626868    0.372774    0.379550     0.004307
NI1534   NI        0.661382    0.324575    0.387237     0.004307
NI1535   NI        0.665528    0.370075    0.403901     0.004307
NI1536   NI        0.700506    0.333279    0.394499     0.004307
NI1537   NI        0.685448    0.361527    0.360139     0.004307
NI1538   NI        0.730556    0.334117    0.355991     0.004307
NI1539   NI        0.742980    0.339093    0.408373     0.004307
AU1540   AU        0.787289    0.293358    0.383113     0.007504
AU1541   AU        0.772418    0.341552    0.368589     0.007504
NI1542   NI        0.818913    0.288984    0.345431     0.004307
NI1543   NI        0.823837    0.337333    0.374048     0.004307
NI1544   NI        0.864423    0.343453    0.395418     0.004307
NI1545   NI        0.852769    0.327174    0.342542     0.004307
NI1546   NI        0.032990    0.437157    0.434924     0.004307
NI1547   NI        0.057186    0.390655    0.417233     0.004307
NI1548   NI        0.040593    0.421775    0.350999     0.004307
AU1549   AU        0.089347    0.391876    0.389083     0.007504
AU1550   AU        0.096682    0.446613    0.400730     0.007504
AU1551   AU        0.127501    0.385394    0.411893     0.007504
AU1552   AU        0.134928    0.422576    0.380895     0.007504
AU1553   AU        0.164934    0.383253    0.376417     0.007504
NI1554   NI        0.180058    0.422168    0.406331     0.004307
NI1555   NI        0.201685    0.370737    0.401856     0.004307
NI1556   NI        0.217483    0.402952    0.363815     0.004307
NI1557   NI        0.254141    0.383068    0.346747     0.004307
NI1558   NI        0.230203    0.423123    0.403327     0.004307
NI1559   NI        0.244114    0.381788    0.399319     0.004307
AU1560   AU        0.270334    0.418940    0.374263     0.007504
NI1561   NI        0.294878    0.376398    0.368846     0.004307
NI1562   NI        0.298741    0.426393    0.412651     0.004307
NI1563   NI        0.335200    0.374279    0.383738     0.004307
NI1564   NI        0.323563    0.410087    0.365340     0.004307
NI1565   NI        0.388044    0.396232    0.376225     0.004307
AU1566   AU        0.350388    0.415022    0.405336     0.007504
NI1567   NI        0.393838    0.363261    0.401211     0.004307
NI1568   NI        0.405670    0.443553    0.363749     0.004307
NI1569   NI        0.475799    0.383009    0.365346     0.004307
AU1570   AU        0.429701    0.404871    0.390036     0.007504
NI1571   NI        0.476825    0.372504    0.404960     0.004307
NI1572   NI        0.477304    0.424921    0.392559     0.004307
NI1573   NI        0.515755    0.388949    0.389684     0.004307
NI1574   NI        0.518931    0.427877    0.412611     0.004307
NI1575   NI        0.559902    0.374515    0.446591     0.004307
NI1576   NI        0.550692    0.429750    0.371355     0.004307
NI1577   NI        0.589160    0.399293    0.382151     0.004307
NI1578   NI        0.585615    0.419729    0.423208     0.004307
NI1579   NI        0.605881    0.359493    0.426343     0.004307
NI1580   NI        0.623446    0.427364    0.372708     0.004307
NI1581   NI        0.659124    0.397587    0.350118     0.004307
NI1582   NI        0.645641    0.406310    0.416112     0.004307
NI1583   NI        0.712992    0.373671    0.408768     0.004307
NI1584   NI        0.695162    0.406445    0.374709     0.004307
NI1585   NI        0.733060    0.378188    0.368376     0.004307
NI1586   NI        0.735503    0.418969    0.403755     0.004307
AU1587   AU        0.769407    0.380834    0.401159     0.007504
AU1588   AU        0.770164    0.415567    0.366339     0.007504
AU1589   AU        0.804889    0.380732    0.364262     0.007504
AU1590   AU        0.806935    0.413031    0.405032     0.007504
NI1591   NI        0.836611    0.375540    0.407511     0.004307
NI1592   NI        0.838919    0.417018    0.357358     0.004307
NI1593   NI        0.853638    0.423496    0.400560     0.004307
NI1594   NI        0.026878    0.424193    0.307518     0.004307
NI1595   NI        0.000714    0.507201    0.422862     0.004307
NI1596   NI        0.038560    0.482243    0.401147     0.004307
NI1597   NI        0.031970    0.496481    0.346616     0.004307
AU1598   AU        0.070558    0.466735    0.362805     0.007504
AU1599   AU        0.072224    0.523349    0.399656     0.007504
NI1600   NI        0.142487    0.461099    0.413529     0.004307
AU1601   AU        0.108908    0.490835    0.385133     0.007504
NI1602   NI        0.167868    0.458036    0.331308     0.004307
NI1603   NI        0.158241    0.505910    0.389662     0.004307
NI1604   NI        0.197879    0.478182    0.428511     0.004307
NI1605   NI        0.205954    0.482511    0.335920     0.004307
AU1606   AU        0.235218    0.455006    0.362409     0.007504
NI1607   NI        0.229500    0.489390    0.400202     0.004307
AU1608   AU        0.265803    0.459439    0.407727     0.007504
AU1609   AU        0.273315    0.490856    0.371512     0.007504
AU1610   AU        0.309681    0.458378    0.377506     0.007504
AU1611   AU        0.304405    0.492065    0.411525     0.007504
AU1612   AU        0.337101    0.454683    0.426656     0.007504
AU1613   AU        0.334610    0.495193    0.375633     0.007504
AU1614   AU        0.360817    0.454402    0.378640     0.007504
AU1615   AU        0.359159    0.491208    0.416174     0.007504
AU1616   AU        0.386995    0.450733    0.420882     0.007504
NI1617   NI        0.388905    0.493599    0.366400     0.004307
NI1618   NI        0.438813    0.457251    0.393603     0.004307
NI1619   NI        0.456565    0.499514    0.407192     0.004307
AU1620   AU        0.486732    0.463274    0.420185     0.007504
NI1621   NI        0.469492    0.461454    0.358777     0.004307
NI1622   NI        0.492632    0.493956    0.379304     0.004307
NI1623   NI        0.525175    0.461271    0.437102     0.004307
NI1624   NI        0.541896    0.475777    0.373632     0.004307
NI1625   NI        0.556480    0.513042    0.362927     0.004307
NI1626   NI        0.588730    0.465437    0.370017     0.004307
NI1627   NI        0.629124    0.496321    0.405656     0.004307
NI1628   NI        0.649773    0.457210    0.399094     0.004307
NI1629   NI        0.654115    0.488151    0.365827     0.004307
NI1630   NI        0.661688    0.444713    0.359987     0.004307
NI1631   NI        0.682178    0.502782    0.407854     0.004307
NI1632   NI        0.701695    0.451807    0.389287     0.004307
NI1633   NI        0.698933    0.486421    0.359056     0.004307
AU1634   AU        0.735683    0.452578    0.362164     0.007504
AU1635   AU        0.735511    0.482415    0.401737     0.007504
AU1636   AU        0.771437    0.449353    0.402934     0.007504
AU1637   AU        0.773710    0.485996    0.367422     0.007504
AU1638   AU        0.810125    0.450597    0.365690     0.007504
AU1639   AU        0.806679    0.485646    0.407485     0.007504
NI1640   NI        0.851868    0.468520    0.416909     0.004307
AU1641   AU        0.831144    0.494476    0.362875     0.007504
NI1642   NI        0.859413    0.461567    0.376814     0.004307
NI1643   NI        0.876838    0.522159    0.401019     0.004307
NI1644   NI        0.034467    0.557129    0.399795     0.004307
NI1645   NI        0.039577    0.583081    0.361166     0.004307
AU1646   AU        0.102005    0.534124    0.363652     0.007504
AU1647   AU        0.074701    0.572566    0.388834     0.007504
AU1648   AU        0.123251    0.538656    0.401295     0.007504
AU1649   AU        0.118117    0.581840    0.368800     0.007504
AU1650   AU        0.150951    0.542643    0.362736     0.007504
AU1651   AU        0.151211    0.580324    0.399248     0.007504
NI1652   NI        0.201077    0.532261    0.390154     0.004307
NI1653   NI        0.194829    0.573250    0.373871     0.004307
AU1654   AU        0.235078    0.515151    0.365272     0.007504
AU1655   AU        0.235325    0.559544    0.391418     0.007504
AU1656   AU        0.266314    0.523794    0.406734     0.007504
NI1657   NI        0.269295    0.559606    0.362635     0.004307
AU1658   AU        0.306853    0.528153    0.375182     0.007504
AU1659   AU        0.293188    0.566296    0.411304     0.007504
AU1660   AU        0.329774    0.530330    0.412560     0.007504
AU1661   AU        0.338421    0.570380    0.379332     0.007504
NI1662   NI        0.360455    0.527293    0.382254     0.004307
NI1663   NI        0.367708    0.566574    0.416456     0.004307
NI1664   NI        0.425566    0.537002    0.386959     0.004307
NI1665   NI        0.473893    0.547714    0.371500     0.004307
NI1666   NI        0.413535    0.493013    0.332749     0.004307
NI1667   NI        0.498855    0.559330    0.403460     0.004307
NI1668   NI        0.494114    0.513523    0.418935     0.004307
NI1669   NI        0.465775    0.576484    0.338603     0.004307
NI1670   NI        0.516357    0.545372    0.352221     0.004307
NI1671   NI        0.536788    0.587807    0.406288     0.004307
NI1672   NI        0.534714    0.517609    0.411541     0.004307
NI1673   NI        0.568462    0.551202    0.421225     0.004307
NI1674   NI        0.581410    0.518210    0.397288     0.004307
NI1675   NI        0.598799    0.568522    0.396433     0.004307
NI1676   NI        0.622036    0.537570    0.380373     0.004307
AU1677   AU        0.644446    0.588467    0.375733     0.007504
NI1678   NI        0.679248    0.523919    0.363031     0.004307
NI1679   NI        0.672803    0.556296    0.388733     0.004307
NI1680   NI        0.712207    0.526176    0.392183     0.004307
AU1681   AU        0.718436    0.559020    0.357412     0.007504
AU1682   AU        0.748248    0.527059    0.358573     0.007504
AU1683   AU        0.746025    0.561744    0.396705     0.007504
AU1684   AU        0.772164    0.520568    0.404674     0.007504
AU1685   AU        0.772846    0.564997    0.357822     0.007504
AU1686   AU        0.801241    0.528579    0.360003     0.007504
AU1687   AU        0.798868    0.562888    0.398556     0.007504
AU1688   AU        0.829246    0.530179    0.398720     0.007504
AU1689   AU        0.834550    0.563781    0.360590     0.007504
NI1690   NI        0.056529    0.609223    0.404828     0.004307
NI1691   NI        0.064669    0.655349    0.347591     0.004307
AU1692   AU        0.078167    0.616072    0.362852     0.007504
NI1693   NI        0.081762    0.649323    0.403227     0.004307
AU1694   AU        0.111835    0.613362    0.399313     0.007504
AU1695   AU        0.114808    0.649730    0.363641     0.007504
AU1696   AU        0.151019    0.617913    0.368778     0.007504
AU1697   AU        0.147435    0.646028    0.403008     0.007504
NI1698   NI        0.185729    0.612132    0.398315     0.004307
AU1699   AU        0.190822    0.648852    0.373071     0.007504
AU1700   AU        0.232363    0.605889    0.380578     0.007504
NI1701   NI        0.227251    0.641362    0.406821     0.004307
AU1702   AU        0.268738    0.606069    0.415214     0.007504
AU1703   AU        0.269899    0.639948    0.375923     0.007504
AU1704   AU        0.305534    0.606249    0.378866     0.007504
AU1705   AU        0.306979    0.642803    0.408187     0.007504
AU1706   AU        0.347507    0.608750    0.412733     0.007504
AU1707   AU        0.339322    0.643527    0.376924     0.007504
AU1708   AU        0.376239    0.608714    0.374386     0.007504
AU1709   AU        0.377008    0.647059    0.412232     0.007504
AU1710   AU        0.398520    0.603559    0.412469     0.007504
AU1711   AU        0.410537    0.637292    0.373710     0.007504
NI1712   NI        0.452882    0.623745    0.367766     0.004307
NI1713   NI        0.441291    0.637117    0.407645     0.004307
NI1714   NI        0.489428    0.625778    0.401246     0.004307
NI1715   NI        0.474316    0.664669    0.365483     0.004307
NI1716   NI        0.489664    0.591625    0.373414     0.004307
NI1717   NI        0.545927    0.641369    0.401200     0.004307
NI1718   NI        0.580951    0.606862    0.386120     0.004307
NI1719   NI        0.560015    0.646852    0.359077     0.004307
NI1720   NI        0.616046    0.634923    0.341679     0.004307
NI1721   NI        0.615050    0.638332    0.392756     0.004307
NI1722   NI        0.613382    0.612272    0.425222     0.004307
NI1723   NI        0.656459    0.635058    0.388366     0.004307
NI1724   NI        0.694992    0.596295    0.384059     0.004307
NI1725   NI        0.637204    0.646071    0.433244     0.004307
NI1726   NI        0.672877    0.601800    0.420105     0.004307
AU1727   AU        0.706423    0.645563    0.373608     0.007504
AU1728   AU        0.743034    0.601454    0.363918     0.007504
AU1729   AU        0.743476    0.640277    0.395550     0.007504
AU1730   AU        0.774356    0.599982    0.394740     0.007504
AU1731   AU        0.772505    0.641018    0.363162     0.007504
AU1732   AU        0.801013    0.599460    0.361926     0.007504
AU1733   AU        0.797409    0.636321    0.398416     0.007504
NI1734   NI        0.858722    0.567487    0.400689     0.004307
NI1735   NI        0.827942    0.599107    0.402622     0.004307
NI1736   NI        0.076578    0.685339    0.377500     0.004307
NI1737   NI        0.081852    0.720039    0.421043     0.004307
AU1738   AU        0.116268    0.682117    0.403096     0.007504
NI1739   NI        0.106930    0.721273    0.387910     0.004307
AU1740   AU        0.151777    0.678292    0.362593     0.007504
AU1741   AU        0.155903    0.710825    0.399333     0.007504
NI1742   NI        0.191347    0.674762    0.407418     0.004307
AU1743   AU        0.191462    0.709975    0.365541     0.007504
AU1744   AU        0.229433    0.675746    0.372794     0.007504
AU1745   AU        0.229971    0.713593    0.396343     0.007504
NI1746   NI        0.266274    0.681273    0.397627     0.004307
AU1747   AU        0.266377    0.716452    0.367262     0.007504
AU1748   AU        0.303623    0.679832    0.374469     0.007504
AU1749   AU        0.304251    0.716888    0.405324     0.007504
AU1750   AU        0.342066    0.681567    0.408900     0.007504
AU1751   AU        0.340832    0.715455    0.369512     0.007504
AU1752   AU        0.377313    0.676352    0.371620     0.007504
NI1753   NI        0.376424    0.718999    0.399986     0.004307
AU1754   AU        0.405358    0.687266    0.410660     0.007504
AU1755   AU        0.416822    0.707984    0.364272     0.007504
NI1756   NI        0.437073    0.674133    0.379366     0.004307
NI1757   NI        0.455219    0.722374    0.399781     0.004307
NI1758   NI        0.494621    0.676815    0.404932     0.004307
NI1759   NI        0.515732    0.705118    0.370125     0.004307
NI1760   NI        0.518717    0.655345    0.369555     0.004307
NI1761   NI        0.531554    0.693107    0.408475     0.004307
NI1762   NI        0.572649    0.669000    0.417648     0.004307
NI1763   NI        0.557408    0.698750    0.372014     0.004307
NI1764   NI        0.600149    0.676014    0.372270     0.004307
AU1765   AU        0.600233    0.710821    0.407255     0.007504
NI1766   NI        0.634163    0.677953    0.403087     0.004307
AU1767   AU        0.633063    0.713872    0.370923     0.007504
AU1768   AU        0.670826    0.681258    0.371489     0.007504
AU1769   AU        0.667028    0.718852    0.407139     0.007504
AU1770   AU        0.704368    0.687733    0.404852     0.007504
AU1771   AU        0.704919    0.719000    0.366575     0.007504
AU1772   AU        0.740453    0.679774    0.366624     0.007504
AU1773   AU        0.743639    0.715151    0.401946     0.007504
AU1774   AU        0.771480    0.676226    0.397217     0.007504
NI1775   NI        0.784178    0.718387    0.367662     0.004307
NI1776   NI        0.821125    0.710645    0.341690     0.004307
NI1777   NI        0.805895    0.676596    0.366406     0.004307
NI1778   NI        0.138652    0.751322    0.398553     0.004307
AU1779   AU        0.146092    0.731002    0.356272     0.007504
NI1780   NI        0.170136    0.771012    0.366912     0.004307
AU1781   AU        0.191677    0.747214    0.399479     0.007504
NI1782   NI        0.214989    0.794167    0.350212     0.004307
AU1783   AU        0.225718    0.746095    0.359260     0.007504
AU1784   AU        0.230272    0.779072    0.393887     0.007504
AU1785   AU        0.267367    0.753676    0.400430     0.007504
AU1786   AU        0.272926    0.787542    0.362019     0.007504
AU1787   AU        0.305362    0.751330    0.367820     0.007504
AU1788   AU        0.307286    0.787968    0.400575     0.007504
AU1789   AU        0.335140    0.747990    0.409316     0.007504
AU1790   AU        0.349664    0.783798    0.369959     0.007504
AU1791   AU        0.381120    0.746595    0.364848     0.007504
AU1792   AU        0.375178    0.771537    0.409729     0.007504
NI1793   NI        0.412746    0.737841    0.408268     0.004307
AU1794   AU        0.403117    0.790756    0.374996     0.007504
AU1795   AU        0.456710    0.738040    0.353412     0.007504
AU1796   AU        0.449005    0.772921    0.387096     0.007504
NI1797   NI        0.489022    0.744121    0.391561     0.004307
AU1798   AU        0.482456    0.782545    0.354615     0.007504
NI1799   NI        0.506741    0.744620    0.349421     0.004307
AU1800   AU        0.516277    0.773983    0.407041     0.007504
AU1801   AU        0.556474    0.736397    0.406048     0.007504
AU1802   AU        0.548678    0.766345    0.365962     0.007504
AU1803   AU        0.587739    0.734920    0.366649     0.007504
AU1804   AU        0.588034    0.774288    0.397578     0.007504
AU1805   AU        0.634649    0.746194    0.407042     0.007504
AU1806   AU        0.629120    0.769405    0.367530     0.007504
AU1807   AU        0.667585    0.750151    0.369347     0.007504
AU1808   AU        0.666689    0.779685    0.403840     0.007504
AU1809   AU        0.706448    0.747289    0.406874     0.007504
NI1810   NI        0.704013    0.791517    0.379341     0.004307
AU1811   AU        0.741345    0.755455    0.372137     0.007504
NI1812   NI        0.739762    0.789137    0.423581     0.004307
NI1813   NI        0.769063    0.754973    0.408094     0.004307
NI1814   NI        0.201061    0.830234    0.433261     0.004307
NI1815   NI        0.215361    0.823245    0.393798     0.004307
AU1816   AU        0.261855    0.817863    0.402851     0.007504
NI1817   NI        0.242593    0.854387    0.372207     0.004307
AU1818   AU        0.319565    0.826297    0.366167     0.007504
NI1819   NI        0.282391    0.863618    0.382873     0.004307
AU1820   AU        0.352203    0.816292    0.402555     0.007504
NI1821   NI        0.347618    0.861910    0.375106     0.004307
AU1822   AU        0.370360    0.825376    0.353758     0.007504
NI1823   NI        0.373243    0.856784    0.434192     0.004307
AU1824   AU        0.399737    0.827559    0.397104     0.007504
NI1825   NI        0.410927    0.853736    0.357739     0.004307
AU1826   AU        0.439033    0.822228    0.364284     0.007504
AU1827   AU        0.434787    0.857760    0.398367     0.007504
AU1828   AU        0.477621    0.813778    0.396198     0.007504
NI1829   NI        0.476147    0.856458    0.382231     0.004307
AU1830   AU        0.523327    0.810137    0.375492     0.007504
AU1831   AU        0.518138    0.847635    0.409325     0.007504
AU1832   AU        0.552307    0.809610    0.410398     0.007504
NI1833   NI        0.557591    0.847426    0.383135     0.004307
AU1834   AU        0.571467    0.809602    0.362423     0.007504
NI1835   NI        0.593038    0.833271    0.401527     0.004307
AU1836   AU        0.628710    0.806340    0.403525     0.007504
NI1837   NI        0.624105    0.814610    0.352430     0.004307
NI1838   NI        0.665805    0.800442    0.365144     0.004307
NI1839   NI        0.660192    0.816291    0.433320     0.004307
NI1840   NI        0.455043    0.895342    0.416751     0.004307
NI1841   NI        0.428782    0.892572    0.335706     0.004307
NI1842   NI        0.506955    0.892977    0.396880     0.004307
NI1843   NI        0.259866    0.056650    0.416668     0.004307
NI1844   NI        0.290759    0.055229    0.497134     0.004307
AU1845   AU        0.325312    0.078086    0.429000     0.007504
NI1846   NI        0.303084    0.031910    0.416237     0.004307
AU1847   AU        0.363645    0.080049    0.459504     0.007504
NI1848   NI        0.418507    0.000714    0.470581     0.004307
AU1849   AU        0.401254    0.069358    0.421292     0.007504
NI1850   NI        0.395789    0.043709    0.457530     0.004307
AU1851   AU        0.437882    0.071688    0.457623     0.007504
NI1852   NI        0.474479    0.047852    0.482996     0.004307
AU1853   AU        0.481251    0.070710    0.439495     0.007504
NI1854   NI        0.513375    0.039011    0.455772     0.004307
AU1855   AU        0.511127    0.077781    0.479578     0.007504
AU1856   AU        0.546091    0.074194    0.442300     0.007504
AU1857   AU        0.585186    0.076399    0.477207     0.007504
NI1858   NI        0.625545    0.072916    0.440332     0.004307
NI1859   NI        0.147839    0.131142    0.522654     0.004307
NI1860   NI        0.180224    0.127146    0.479629     0.004307
AU1861   AU        0.207639    0.142781    0.439020     0.007504
NI1862   NI        0.231758    0.100598    0.440468     0.004307
AU1863   AU        0.232537    0.131888    0.479005     0.007504
NI1864   NI        0.264757    0.091785    0.488412     0.004307
AU1865   AU        0.261308    0.140221    0.438084     0.007504
AU1866   AU        0.281031    0.101639    0.439222     0.007504
AU1867   AU        0.293272    0.126441    0.478032     0.007504
AU1868   AU        0.330037    0.118189    0.453086     0.007504
AU1869   AU        0.359844    0.147167    0.442160     0.007504
AU1870   AU        0.366574    0.106915    0.421572     0.007504
AU1871   AU        0.369294    0.121633    0.487891     0.007504
AU1872   AU        0.403582    0.111530    0.452486     0.007504
AU1873   AU        0.402192    0.142608    0.422138     0.007504
AU1874   AU        0.443476    0.108655    0.432494     0.007504
AU1875   AU        0.436428    0.144803    0.457097     0.007504
AU1876   AU        0.472538    0.108992    0.465855     0.007504
AU1877   AU        0.479092    0.145575    0.433781     0.007504
AU1878   AU        0.515336    0.110690    0.440623     0.007504
AU1879   AU        0.510747    0.123723    0.501328     0.007504
AU1880   AU        0.550740    0.111162    0.475984     0.007504
AU1881   AU        0.555333    0.138809    0.438760     0.007504
AU1882   AU        0.590675    0.104173    0.439308     0.007504
AU1883   AU        0.590368    0.142267    0.476498     0.007504
AU1884   AU        0.625801    0.106799    0.477751     0.007504
AU1885   AU        0.624702    0.136018    0.435966     0.007504
NI1886   NI        0.660533    0.104799    0.440487     0.004307
AU1887   AU        0.670941    0.127620    0.495474     0.007504
NI1888   NI        0.659067    0.072520    0.488854     0.004307
NI1889   NI        0.692823    0.141111    0.445354     0.004307
NI1890   NI        0.728659    0.131218    0.487799     0.004307
NI1891   NI        0.123685    0.181565    0.464950     0.004307
NI1892   NI        0.141300    0.143571    0.442639     0.004307
AU1893   AU        0.133330    0.207885    0.433149     0.007504
AU1894   AU        0.171271    0.177500    0.437771     0.007504
AU1895   AU        0.165732    0.206907    0.477096     0.007504
AU1896   AU        0.202609    0.170871    0.475672     0.007504
AU1897   AU        0.199131    0.212839    0.439857     0.007504
AU1898   AU        0.236739    0.179417    0.435995     0.007504
AU1899   AU        0.235502    0.205299    0.477749     0.007504
AU1900   AU        0.265106    0.169922    0.476569     0.007504
AU1901   AU        0.275153    0.208497    0.449167     0.007504
AU1902   AU        0.306854    0.168702    0.450907     0.007504
NI1903   NI        0.310906    0.203412    0.477967     0.004307
AU1904   AU        0.343219    0.164018    0.484645     0.007504
NI1905   NI        0.342924    0.195032    0.449721     0.004307
NI1906   NI        0.381278    0.184478    0.424974     0.004307
NI1907   NI        0.377534    0.204371    0.470876     0.004307
AU1908   AU        0.391756    0.161142    0.466845     0.007504
NI1909   NI        0.407730    0.220955    0.420354     0.004307
NI1910   NI        0.427014    0.178311    0.432899     0.004307
NI1911   NI        0.426223    0.184872    0.479271     0.004307
NI1912   NI        0.488512    0.152821    0.474762     0.004307
NI1913   NI        0.470430    0.187863    0.456362     0.004307
NI1914   NI        0.521758    0.170437    0.438757     0.004307
NI1915   NI        0.509512    0.209020    0.487417     0.004307
AU1916   AU        0.551373    0.171669    0.477507     0.007504
NI1917   NI        0.552113    0.201775    0.440110     0.004307
AU1918   AU        0.593170    0.173816    0.440693     0.007504
AU1919   AU        0.612175    0.189534    0.491401     0.007504
AU1920   AU        0.639229    0.155313    0.472457     0.007504
AU1921   AU        0.626929    0.198374    0.446540     0.007504
AU1922   AU        0.670550    0.179179    0.442549     0.007504
AU1923   AU        0.662266    0.203410    0.481837     0.007504
AU1924   AU        0.698649    0.174127    0.482917     0.007504
AU1925   AU        0.701103    0.221367    0.457278     0.007504
AU1926   AU        0.726612    0.179627    0.442448     0.007504
AU1927   AU        0.741014    0.198880    0.481015     0.007504
NI1928   NI        0.774663    0.173074    0.460044     0.004307
AU1929   AU        0.759668    0.217199    0.442633     0.007504
NI1930   NI        0.832700    0.239675    0.507396     0.004307
NI1931   NI        0.064795    0.313910    0.412649     0.004307
NI1932   NI        0.051812    0.249918    0.448169     0.004307
AU1933   AU        0.084528    0.270314    0.472285     0.007504
AU1934   AU        0.123564    0.236941    0.473785     0.007504
AU1935   AU        0.124528    0.276876    0.443259     0.007504
AU1936   AU        0.163150    0.243559    0.444520     0.007504
AU1937   AU        0.162416    0.277900    0.480403     0.007504
AU1938   AU        0.200670    0.244660    0.477983     0.007504
AU1939   AU        0.199278    0.278050    0.442267     0.007504
AU1940   AU        0.237204    0.241846    0.443705     0.007504
AU1941   AU        0.237807    0.280597    0.475003     0.007504
AU1942   AU        0.276004    0.242946    0.480644     0.007504
AU1943   AU        0.275517    0.274603    0.439484     0.007504
NI1944   NI        0.306405    0.238321    0.441358     0.004307
NI1945   NI        0.308054    0.278455    0.467478     0.004307
NI1946   NI        0.345690    0.243872    0.470462     0.004307
NI1947   NI        0.349013    0.268256    0.434948     0.004307
NI1948   NI        0.384139    0.241431    0.451013     0.004307
AU1949   AU        0.382533    0.275796    0.474686     0.007504
AU1950   AU        0.419856    0.228167    0.473331     0.007504
NI1951   NI        0.429487    0.293170    0.463505     0.004307
NI1952   NI        0.452999    0.224201    0.439953     0.004307
AU1953   AU        0.429053    0.269715    0.499255     0.007504
NI1954   NI        0.461580    0.225735    0.481341     0.004307
NI1955   NI        0.462544    0.263788    0.463020     0.004307
NI1956   NI        0.504163    0.226649    0.444464     0.004307
NI1957   NI        0.534541    0.286079    0.478695     0.004307
NI1958   NI        0.536286    0.236880    0.470882     0.004307
NI1959   NI        0.557932    0.280192    0.439435     0.004307
NI1960   NI        0.592472    0.229290    0.465067     0.004307
NI1961   NI        0.566383    0.265772    0.497740     0.004307
NI1962   NI        0.637144    0.238250    0.487404     0.004307
NI1963   NI        0.597253    0.251978    0.421383     0.004307
NI1964   NI        0.661200    0.230631    0.446740     0.004307
NI1965   NI        0.603418    0.269517    0.481974     0.004307
NI1966   NI        0.691818    0.275516    0.471286     0.004307
AU1967   AU        0.692920    0.292170    0.423840     0.007504
AU1968   AU        0.727390    0.253719    0.426013     0.007504
AU1969   AU        0.728999    0.294870    0.456781     0.007504
AU1970   AU        0.733931    0.247615    0.473036     0.007504
AU1971   AU        0.772795    0.263054    0.444849     0.007504
NI1972   NI        0.850537    0.257062    0.464901     0.004307
NI1973   NI        0.822039    0.317680    0.432896     0.004307
NI1974   NI        0.799861    0.218628    0.457863     0.004307
NI1975   NI        0.061651    0.321954    0.490573     0.004307
AU1976   AU        0.055513    0.350251    0.448894     0.007504
AU1977   AU        0.088993    0.314368    0.451446     0.007504
AU1978   AU        0.094090    0.353960    0.483107     0.007504
AU1979   AU        0.125867    0.313068    0.482143     0.007504
AU1980   AU        0.125209    0.348438    0.445762     0.007504
AU1981   AU        0.161578    0.312709    0.445230     0.007504
AU1982   AU        0.171413    0.358550    0.471793     0.007504
AU1983   AU        0.205137    0.319584    0.471345     0.007504
NI1984   NI        0.221128    0.396823    0.434002     0.004307
AU1985   AU        0.237288    0.311970    0.434798     0.007504
NI1986   NI        0.248312    0.350348    0.479120     0.004307
NI1987   NI        0.266632    0.312578    0.475640     0.004307
NI1988   NI        0.282421    0.322150    0.437300     0.004307
NI1989   NI        0.312842    0.301409    0.414959     0.004307
NI1990   NI        0.307957    0.333288    0.476539     0.004307
AU1991   AU        0.351902    0.312840    0.448882     0.007504
NI1992   NI        0.320865    0.352501    0.438761     0.004307
NI1993   NI        0.399000    0.287833    0.437532     0.004307
AU1994   AU        0.353662    0.350648    0.478241     0.007504
AU1995   AU        0.393903    0.326372    0.474205     0.007504
NI1996   NI        0.386225    0.335003    0.433490     0.004307
NI1997   NI        0.429173    0.328537    0.441807     0.004307
AU1998   AU        0.433687    0.361885    0.482238     0.007504
NI1999   NI        0.466468    0.316423    0.462795     0.004307
AU2000   AU        0.476543    0.357501    0.454262     0.007504
AU2001   AU        0.494715    0.281492    0.437510     0.007504
AU2002   AU        0.512916    0.323421    0.461072     0.007504
NI2003   NI        0.552348    0.328953    0.492154     0.004307
AU2004   AU        0.557669    0.331728    0.440584     0.007504
AU2005   AU        0.582091    0.302921    0.465284     0.007504
NI2006   NI        0.587779    0.348176    0.467025     0.004307
NI2007   NI        0.626853    0.329852    0.459893     0.004307
NI2008   NI        0.659355    0.329084    0.430901     0.004307
NI2009   NI        0.630408    0.285210    0.439388     0.004307
NI2010   NI        0.663866    0.366765    0.478674     0.004307
NI2011   NI        0.688338    0.305709    0.498573     0.004307
AU2012   AU        0.708024    0.338523    0.445756     0.007504
AU2013   AU        0.767717    0.309444    0.426894     0.007504
AU2014   AU        0.747638    0.338114    0.473565     0.007504
AU2015   AU        0.775047    0.295499    0.480522     0.007504
AU2016   AU        0.785349    0.351970    0.446739     0.007504
NI2017   NI        0.793297    0.335206    0.406265     0.004307
NI2018   NI        0.806188    0.327602    0.479361     0.004307
NI2019   NI        0.865782    0.297479    0.461406     0.004307
NI2020   NI        0.858354    0.350860    0.441757     0.004307
NI2021   NI        0.020432    0.385832    0.449200     0.004307
NI2022   NI        0.024805    0.443874    0.513156     0.004307
NI2023   NI        0.055640    0.383762    0.482572     0.004307
AU2024   AU        0.052860    0.426041    0.390708     0.007504
AU2025   AU        0.089834    0.387040    0.445474     0.007504
AU2026   AU        0.078765    0.447072    0.461653     0.007504
AU2027   AU        0.129389    0.389894    0.476882     0.007504
NI2028   NI        0.117015    0.424077    0.439800     0.004307
NI2029   NI        0.171983    0.385521    0.438578     0.004307
NI2030   NI        0.173761    0.432496    0.487869     0.004307
NI2031   NI        0.207000    0.393824    0.474347     0.004307
NI2032   NI        0.206224    0.435237    0.450646     0.004307
NI2033   NI        0.243020    0.360762    0.435434     0.004307
NI2034   NI        0.223089    0.442677    0.491711     0.004307
NI2035   NI        0.248975    0.399075    0.472576     0.004307
NI2036   NI        0.266573    0.410653    0.431980     0.004307
NI2037   NI        0.283199    0.364983    0.455490     0.004307
NI2038   NI        0.323887    0.431243    0.490565     0.004307
NI2039   NI        0.314977    0.389458    0.480607     0.004307
NI2040   NI        0.313894    0.392069    0.431120     0.004307
AU2041   AU        0.359138    0.371448    0.428161     0.007504
AU2042   AU        0.353125    0.414336    0.457142     0.007504
AU2043   AU        0.390482    0.375098    0.463193     0.007504
AU2044   AU        0.394058    0.406695    0.424718     0.007504
AU2045   AU        0.433561    0.374443    0.431850     0.007504
NI2046   NI        0.438360    0.413217    0.464952     0.004307
NI2047   NI        0.482908    0.401717    0.484181     0.004307
NI2048   NI        0.484249    0.406865    0.442396     0.004307
NI2049   NI        0.518574    0.386012    0.465514     0.004307
NI2050   NI        0.511802    0.427256    0.508560     0.004307
NI2051   NI        0.550384    0.420176    0.486537     0.004307
NI2052   NI        0.551357    0.424360    0.446109     0.004307
NI2053   NI        0.588643    0.405508    0.476582     0.004307
NI2054   NI        0.617713    0.428050    0.447989     0.004307
NI2055   NI        0.626689    0.379858    0.462103     0.004307
NI2056   NI        0.606647    0.450957    0.404799     0.004307
NI2057   NI        0.688002    0.385279    0.444105     0.004307
NI2058   NI        0.661080    0.435457    0.452986     0.004307
NI2059   NI        0.708710    0.371159    0.481494     0.004307
NI2060   NI        0.691571    0.425157    0.425181     0.004307
AU2061   AU        0.742991    0.376645    0.442871     0.007504
AU2062   AU        0.744939    0.408638    0.482345     0.007504
AU2063   AU        0.784753    0.400291    0.455755     0.007504
NI2064   NI        0.748455    0.430149    0.441865     0.004307
NI2065   NI        0.828412    0.391059    0.444057     0.004307
AU2066   AU        0.835925    0.454452    0.481458     0.007504
AU2067   AU        0.811728    0.415417    0.487408     0.007504
NI2068   NI        0.840216    0.430408    0.438504     0.004307
NI2069   NI        0.827518    0.371837    0.481868     0.004307
NI2070   NI        0.882358    0.369390    0.489351     0.004307
NI2071   NI        0.035907    0.477528    0.449372     0.004307
NI2072   NI        0.031779    0.509014    0.484631     0.004307
NI2073   NI        0.044894    0.428695    0.478036     0.004307
AU2074   AU        0.046623    0.523590    0.440069     0.007504
AU2075   AU        0.080752    0.485632    0.429005     0.007504
AU2076   AU        0.072660    0.498432    0.470377     0.007504
AU2077   AU        0.099023    0.468763    0.501999     0.007504
NI2078   NI        0.123966    0.463315    0.455584     0.004307
NI2079   NI        0.166133    0.457561    0.449392     0.004307
NI2080   NI        0.161127    0.496774    0.468564     0.004307
NI2081   NI        0.202911    0.472128    0.471780     0.004307
NI2082   NI        0.230253    0.508809    0.441867     0.004307
NI2083   NI        0.235819    0.465138    0.445076     0.004307
NI2084   NI        0.251458    0.475480    0.482569     0.004307
NI2085   NI        0.273278    0.437004    0.476625     0.004307
AU2086   AU        0.274959    0.488542    0.446232     0.007504
NI2087   NI        0.298860    0.450838    0.447371     0.004307
AU2088   AU        0.289327    0.499989    0.488329     0.007504
AU2089   AU        0.326103    0.488203    0.454992     0.007504
NI2090   NI        0.348351    0.524492    0.453539     0.004307
NI2091   NI        0.386960    0.502660    0.446792     0.004307
NI2092   NI        0.381300    0.511380    0.498898     0.004307
NI2093   NI        0.398737    0.427663    0.462973     0.004307
NI2094   NI        0.408519    0.491538    0.406896     0.004307
NI2095   NI        0.437723    0.433274    0.428531     0.004307
AU2096   AU        0.424039    0.470752    0.448608     0.007504
NI2097   NI        0.472102    0.456539    0.459243     0.004307
NI2098   NI        0.462168    0.498836    0.452639     0.004307
NI2099   NI        0.508787    0.431335    0.468293     0.004307
NI2100   NI        0.508518    0.483025    0.471484     0.004307
NI2101   NI        0.549750    0.467775    0.472981     0.004307
NI2102   NI        0.556595    0.492125    0.436378     0.004307
NI2103   NI        0.558641    0.452644    0.406671     0.004307
NI2104   NI        0.576521    0.494291    0.491499     0.004307
AU2105   AU        0.614540    0.461049    0.483373     0.007504
NI2106   NI        0.616395    0.476947    0.441173     0.004307
NI2107   NI        0.668818    0.471379    0.433835     0.004307
NI2108   NI        0.644756    0.489206    0.473885     0.004307
NI2109   NI        0.707120    0.439824    0.479288     0.004307
NI2110   NI        0.687767    0.494683    0.461250     0.004307
NI2111   NI        0.713312    0.466971    0.441417     0.004307
NI2112   NI        0.737175    0.482018    0.477015     0.004307
AU2113   AU        0.776484    0.447246    0.481718     0.007504
AU2114   AU        0.768338    0.484523    0.441035     0.007504
AU2115   AU        0.799316    0.446506    0.443348     0.007504
AU2116   AU        0.804065    0.488861    0.474995     0.007504
NI2117   NI        0.859248    0.413570    0.477614     0.004307
NI2118   NI        0.837453    0.509167    0.437185     0.004307
NI2119   NI        0.862781    0.491915    0.327007     0.004307
NI2120   NI        0.861787    0.490594    0.477159     0.004307
NI2121   NI        0.015782    0.554514    0.470460     0.004307
AU2122   AU        0.060601    0.546326    0.475733     0.007504
AU2123   AU        0.059648    0.572576    0.437593     0.007504
AU2124   AU        0.093843    0.530646    0.438696     0.007504
AU2125   AU        0.100227    0.571058    0.468932     0.007504
NI2126   NI        0.118320    0.501578    0.469241     0.004307
AU2127   AU        0.107221    0.574931    0.419341     0.007504
NI2128   NI        0.135020    0.502724    0.429137     0.004307
NI2129   NI        0.143264    0.547886    0.440340     0.004307
NI2130   NI        0.179603    0.517708    0.431421     0.004307
NI2131   NI        0.176640    0.578198    0.444287     0.004307
NI2132   NI        0.206118    0.548242    0.430116     0.004307
NI2133   NI        0.221719    0.562416    0.469123     0.004307
NI2134   NI        0.253294    0.528701    0.479271     0.004307
AU2135   AU        0.257623    0.561559    0.436646     0.007504
AU2136   AU        0.294557    0.528422    0.446550     0.007504
NI2137   NI        0.290184    0.564967    0.469200     0.004307
NI2138   NI        0.327513    0.521764    0.491641     0.004307
NI2139   NI        0.332106    0.564507    0.441274     0.004307
NI2140   NI        0.393515    0.530172    0.415288     0.004307
NI2141   NI        0.389944    0.545979    0.454195     0.004307
AU2142   AU        0.427668    0.524970    0.445571     0.007504
NI2143   NI        0.418975    0.566143    0.417890     0.004307
NI2144   NI        0.461843    0.546569    0.413627     0.004307
AU2145   AU        0.447952    0.566771    0.459959     0.007504
AU2146   AU        0.462783    0.532937    0.486067     0.007504
NI2147   NI        0.476625    0.591051    0.438350     0.004307
NI2148   NI        0.491183    0.543068    0.447526     0.004307
NI2149   NI        0.542199    0.581726    0.449729     0.004307
NI2150   NI        0.576755    0.554252    0.479982     0.004307
NI2151   NI        0.548101    0.534763    0.456068     0.004307
NI2152   NI        0.598145    0.524886    0.441667     0.004307
NI2153   NI        0.547244    0.617949    0.470839     0.004307
AU2154   AU        0.614514    0.521903    0.482019     0.007504
NI2155   NI        0.623338    0.559747    0.444730     0.004307
NI2156   NI        0.640059    0.519911    0.443036     0.004307
AU2157   AU        0.643425    0.560093    0.487016     0.007504
NI2158   NI        0.680456    0.535362    0.469295     0.004307
NI2159   NI        0.706574    0.563715    0.424550     0.004307
AU2160   AU        0.733381    0.522640    0.435568     0.007504
AU2161   AU        0.730387    0.556477    0.471973     0.007504
AU2162   AU        0.766475    0.523561    0.474481     0.007504
AU2163   AU        0.766210    0.560471    0.436274     0.007504
AU2164   AU        0.797807    0.524472    0.438747     0.007504
AU2165   AU        0.792064    0.563456    0.470506     0.007504
AU2166   AU        0.827509    0.529665    0.475607     0.007504
AU2167   AU        0.829752    0.561178    0.437714     0.007504
NI2168   NI        0.864829    0.545108    0.463419     0.004307
NI2169   NI        0.044071    0.610301    0.474527     0.004307
NI2170   NI        0.057923    0.647028    0.447676     0.004307
AU2171   AU        0.086544    0.612411    0.443207     0.007504
AU2172   AU        0.086773    0.640723    0.482557     0.007504
AU2173   AU        0.118972    0.609053    0.475531     0.007504
AU2174   AU        0.112452    0.649495    0.440493     0.007504
AU2175   AU        0.139810    0.608907    0.437549     0.007504
AU2176   AU        0.151887    0.641327    0.474642     0.007504
NI2177   NI        0.203436    0.598895    0.474760     0.004307
AU2178   AU        0.185111    0.628343    0.436707     0.007504
AU2179   AU        0.221946    0.593435    0.427181     0.007504
NI2180   NI        0.232069    0.641048    0.463175     0.004307
NI2181   NI        0.255544    0.601323    0.465189     0.004307
NI2182   NI        0.266158    0.649422    0.428434     0.004307
NI2183   NI        0.307053    0.605304    0.443617     0.004307
NI2184   NI        0.287729    0.636738    0.464240     0.004307
NI2185   NI        0.329978    0.586695    0.476749     0.004307
AU2186   AU        0.340998    0.647523    0.444644     0.007504
NI2187   NI        0.365106    0.586208    0.454535     0.004307
AU2188   AU        0.387085    0.640020    0.461258     0.007504
NI2189   NI        0.409376    0.587396    0.473725     0.004307
NI2190   NI        0.420537    0.659360    0.440852     0.004307
NI2191   NI        0.448570    0.597602    0.401832     0.004307
NI2192   NI        0.432011    0.604886    0.444151     0.004307
NI2193   NI        0.461002    0.630093    0.471997     0.004307
NI2194   NI        0.484551    0.655080    0.442649     0.004307
NI2195   NI        0.516411    0.619676    0.433241     0.004307
NI2196   NI        0.530974    0.657505    0.486325     0.004307
NI2197   NI        0.505292    0.624289    0.476289     0.004307
NI2198   NI        0.572256    0.622077    0.429879     0.004307
NI2199   NI        0.583676    0.583816    0.444894     0.004307
NI2200   NI        0.581734    0.643156    0.465671     0.004307
AU2201   AU        0.610093    0.601730    0.487955     0.007504
NI2202   NI        0.625135    0.638155    0.475737     0.004307
AU2203   AU        0.643083    0.595458    0.451476     0.007504
AU2204   AU        0.667516    0.638842    0.458853     0.007504
AU2205   AU        0.703384    0.598715    0.458730     0.007504
AU2206   AU        0.705236    0.637979    0.420219     0.007504
AU2207   AU        0.735773    0.600729    0.418351     0.007504
AU2208   AU        0.732100    0.637797    0.460316     0.007504
AU2209   AU        0.756532    0.598547    0.464350     0.007504
AU2210   AU        0.766225    0.636570    0.432881     0.007504
AU2211   AU        0.797028    0.601667    0.436050     0.007504
NI2212   NI        0.830044    0.635594    0.429033     0.004307
NI2213   NI        0.828650    0.604766    0.465480     0.004307
NI2214   NI        0.819262    0.686081    0.479815     0.004307
NI2215   NI        0.074488    0.686841    0.451547     0.004307
NI2216   NI        0.093067    0.717888    0.477320     0.004307
AU2217   AU        0.119716    0.677701    0.475959     0.007504
NI2218   NI        0.122626    0.709061    0.435826     0.004307
AU2219   AU        0.153372    0.672841    0.437207     0.007504
AU2220   AU        0.160658    0.709190    0.471346     0.007504
AU2221   AU        0.192481    0.668186    0.467586     0.007504
AU2222   AU        0.192069    0.708579    0.433702     0.007504
NI2223   NI        0.228159    0.681257    0.426414     0.004307
AU2224   AU        0.229908    0.704472    0.467467     0.007504
NI2225   NI        0.262396    0.672691    0.465998     0.004307
AU2226   AU        0.267121    0.714952    0.434372     0.007504
NI2227   NI        0.298072    0.674385    0.435408     0.004307
AU2228   AU        0.294792    0.710355    0.467727     0.007504
AU2229   AU        0.353116    0.660689    0.492462     0.007504
AU2230   AU        0.334612    0.694497    0.457621     0.007504
NI2231   NI        0.374699    0.676850    0.445982     0.004307
NI2232   NI        0.378783    0.703722    0.477471     0.004307
AU2233   AU        0.412803    0.675667    0.484070     0.007504
AU2234   AU        0.408242    0.716627    0.453134     0.007504
NI2235   NI        0.456489    0.679801    0.423245     0.004307
NI2236   NI        0.447830    0.706431    0.483230     0.004307
NI2237   NI        0.487661    0.690985    0.465732     0.004307
NI2238   NI        0.489044    0.719760    0.430446     0.004307
NI2239   NI        0.535223    0.667187    0.443389     0.004307
AU2240   AU        0.530362    0.707197    0.484479     0.007504
NI2241   NI        0.574720    0.678525    0.486102     0.004307
AU2242   AU        0.565560    0.710389    0.446347     0.007504
AU2243   AU        0.607074    0.684624    0.447951     0.007504
AU2244   AU        0.600556    0.725838    0.483824     0.007504
AU2245   AU        0.625234    0.686211    0.488237     0.007504
AU2246   AU        0.634794    0.727893    0.447872     0.007504
AU2247   AU        0.659121    0.687186    0.449392     0.007504
AU2248   AU        0.655943    0.725262    0.484295     0.007504
AU2249   AU        0.704831    0.674521    0.456523     0.007504
AU2250   AU        0.696326    0.718929    0.447498     0.007504
AU2251   AU        0.739153    0.675967    0.429776     0.007504
AU2252   AU        0.736308    0.718032    0.479339     0.007504
AU2253   AU        0.760709    0.677899    0.466977     0.007504
NI2254   NI        0.767296    0.713991    0.440553     0.004307
AU2255   AU        0.799331    0.676151    0.434684     0.007504
AU2256   AU        0.795819    0.639589    0.466727     0.007504
NI2257   NI        0.137044    0.746450    0.481746     0.004307
AU2258   AU        0.162864    0.746799    0.440040     0.007504
AU2259   AU        0.173576    0.772028    0.480396     0.007504
AU2260   AU        0.200530    0.736816    0.473391     0.007504
NI2261   NI        0.195297    0.784521    0.433491     0.004307
AU2262   AU        0.227419    0.745026    0.433910     0.007504
AU2263   AU        0.223712    0.780360    0.474168     0.007504
AU2264   AU        0.259388    0.746467    0.472619     0.007504
AU2265   AU        0.262252    0.785419    0.440520     0.007504
AU2266   AU        0.297080    0.753942    0.440974     0.007504
AU2267   AU        0.298441    0.785798    0.478176     0.007504
AU2268   AU        0.331465    0.743419    0.479014     0.007504
AU2269   AU        0.336521    0.785243    0.442156     0.007504
AU2270   AU        0.362460    0.740059    0.447099     0.007504
AU2271   AU        0.370058    0.776251    0.478521     0.007504
AU2272   AU        0.406907    0.763355    0.448287     0.007504
AU2273   AU        0.423380    0.792846    0.418642     0.007504
NI2274   NI        0.448149    0.729227    0.448557     0.004307
AU2275   AU        0.445241    0.761033    0.480474     0.007504
AU2276   AU        0.489572    0.736624    0.479471     0.007504
AU2277   AU        0.477082    0.762887    0.436219     0.007504
AU2278   AU        0.524196    0.739299    0.444372     0.007504
AU2279   AU        0.488093    0.785957    0.477583     0.007504
AU2280   AU        0.558649    0.747800    0.479138     0.007504
AU2281   AU        0.556090    0.770087    0.436086     0.007504
AU2282   AU        0.594556    0.751032    0.441364     0.007504
AU2283   AU        0.589541    0.779027    0.474668     0.007504
AU2284   AU        0.631243    0.762405    0.490371     0.007504
AU2285   AU        0.633869    0.780021    0.442913     0.007504
AU2286   AU        0.671990    0.755669    0.440652     0.007504
NI2287   NI        0.666312    0.787751    0.480020     0.004307
AU2288   AU        0.697351    0.750258    0.482995     0.007504
NI2289   NI        0.713500    0.778217    0.454833     0.004307
NI2290   NI        0.741665    0.749189    0.444171     0.004307
NI2291   NI        0.735881    0.795893    0.524875     0.004307
NI2292   NI        0.748673    0.760735    0.489923     0.004307
NI2293   NI        0.188213    0.806172    0.506662     0.004307
NI2294   NI        0.239801    0.821877    0.446304     0.004307
NI2295   NI        0.249209    0.851358    0.476935     0.004307
NI2296   NI        0.277181    0.855058    0.432988     0.004307
AU2297   AU        0.301394    0.817776    0.439615     0.007504
NI2298   NI        0.354146    0.864557    0.515553     0.004307
AU2299   AU        0.343416    0.833134    0.468265     0.007504
NI2300   NI        0.326071    0.849666    0.413626     0.004307
AU2301   AU        0.379380    0.810374    0.441599     0.007504
AU2302   AU        0.390902    0.848293    0.474464     0.007504
AU2303   AU        0.409881    0.804152    0.481511     0.007504
AU2304   AU        0.418144    0.832409    0.437774     0.007504
AU2305   AU        0.454259    0.804554    0.459162     0.007504
AU2306   AU        0.440175    0.846019    0.474175     0.007504
AU2307   AU        0.485885    0.836678    0.476502     0.007504
AU2308   AU        0.465263    0.847462    0.431467     0.007504
AU2309   AU        0.499311    0.811698    0.435389     0.007504
NI2310   NI        0.534753    0.849466    0.461142     0.004307
AU2311   AU        0.547443    0.808325    0.467923     0.007504
NI2312   NI        0.559537    0.868818    0.430639     0.004307
AU2313   AU        0.590538    0.806119    0.435465     0.007504
AU2314   AU        0.587167    0.828568    0.476939     0.007504
NI2315   NI        0.630189    0.809298    0.477713     0.004307
NI2316   NI        0.617270    0.846429    0.440299     0.004307
NI2317   NI        0.660869    0.839096    0.471695     0.004307
NI2318   NI        0.700028    0.817852    0.446583     0.004307
NI2319   NI        0.361951    0.884697    0.465982     0.004307
NI2320   NI        0.427231    0.885355    0.491970     0.004307
NI2321   NI        0.413276    0.874610    0.436913     0.004307
NI2322   NI        0.462818    0.881201    0.465441     0.004307
NI2323   NI        0.499581    0.880266    0.440947     0.004307
NI2324   NI        0.291204    0.099406    0.518490     0.004307
NI2325   NI        0.326166    0.030073    0.488066     0.004307
NI2326   NI        0.369891    0.050378    0.500843     0.004307
NI2327   NI        0.406113    0.064958    0.580675     0.004307
AU2328   AU        0.403050    0.081616    0.490494     0.007504
NI2329   NI        0.460237    0.004545    0.498093     0.004307
NI2330   NI        0.423981    0.042627    0.501023     0.004307
NI2331   NI        0.490688    0.058620    0.525322     0.004307
NI2332   NI        0.522376    0.066959    0.559700     0.004307
NI2333   NI        0.531622    0.038652    0.503052     0.004307
NI2334   NI        0.564431    0.057678    0.543279     0.004307
NI2335   NI        0.599669    0.070003    0.525781     0.004307
NI2336   NI        0.200625    0.134217    0.520214     0.004307
NI2337   NI        0.232003    0.098308    0.519578     0.004307
AU2338   AU        0.231823    0.139960    0.555415     0.007504
NI2339   NI        0.266905    0.114287    0.554528     0.004307
AU2340   AU        0.266772    0.135219    0.515221     0.007504
AU2341   AU        0.320088    0.084687    0.485876     0.007504
AU2342   AU        0.304917    0.140547    0.548053     0.007504
AU2343   AU        0.316808    0.097221    0.555032     0.007504
AU2344   AU        0.329986    0.127084    0.513696     0.007504
AU2345   AU        0.356612    0.091849    0.522311     0.007504
AU2346   AU        0.380871    0.133388    0.537054     0.007504
AU2347   AU        0.411404    0.089681    0.533642     0.007504
AU2348   AU        0.414489    0.129101    0.498013     0.007504
AU2349   AU        0.452293    0.083006    0.505493     0.007504
AU2350   AU        0.443951    0.125603    0.555553     0.007504
AU2351   AU        0.487344    0.098638    0.541912     0.007504
AU2352   AU        0.464571    0.129135    0.511825     0.007504
AU2353   AU        0.537730    0.086776    0.518579     0.007504
AU2354   AU        0.522145    0.132149    0.551171     0.007504
AU2355   AU        0.560032    0.103197    0.553850     0.007504
AU2356   AU        0.554656    0.139048    0.514823     0.007504
AU2357   AU        0.585469    0.108871    0.513629     0.007504
AU2358   AU        0.589603    0.144279    0.552526     0.007504
AU2359   AU        0.614375    0.105792    0.553520     0.007504
AU2360   AU        0.624268    0.141370    0.512889     0.007504
NI2361   NI        0.644635    0.094736    0.524526     0.004307
AU2362   AU        0.664171    0.126246    0.548066     0.007504
NI2363   NI        0.701175    0.146848    0.520643     0.004307
AU2364   AU        0.125141    0.202314    0.510741     0.007504
AU2365   AU        0.165703    0.170377    0.511103     0.007504
AU2366   AU        0.159608    0.204861    0.548111     0.007504
AU2367   AU        0.198855    0.173824    0.551205     0.007504
AU2368   AU        0.198263    0.207635    0.512888     0.007504
AU2369   AU        0.233945    0.171156    0.513160     0.007504
AU2370   AU        0.234440    0.209598    0.546032     0.007504
AU2371   AU        0.270482    0.174020    0.549167     0.007504
AU2372   AU        0.271879    0.204708    0.513080     0.007504
AU2373   AU        0.301078    0.167244    0.509965     0.007504
AU2374   AU        0.312438    0.206124    0.542635     0.007504
AU2375   AU        0.346860    0.169550    0.535219     0.007504
AU2376   AU        0.349553    0.209672    0.506134     0.007504
AU2377   AU        0.388131    0.174090    0.510572     0.007504
AU2378   AU        0.381562    0.205383    0.548692     0.007504
AU2379   AU        0.415864    0.167485    0.550768     0.007504
AU2380   AU        0.426531    0.205359    0.518905     0.007504
NI2381   NI        0.449765    0.167996    0.524535     0.004307
AU2382   AU        0.452873    0.203381    0.561775     0.007504
AU2383   AU        0.478845    0.160733    0.557314     0.007504
NI2384   NI        0.478658    0.198400    0.514159     0.004307
NI2385   NI        0.519096    0.167988    0.516344     0.004307
NI2386   NI        0.524275    0.208123    0.536273     0.004307
AU2387   AU        0.551815    0.173755    0.553632     0.007504
NI2388   NI        0.563499    0.208204    0.500757     0.004307
NI2389   NI        0.582382    0.169517    0.515989     0.004307
AU2390   AU        0.598869    0.196077    0.543148     0.007504
AU2391   AU        0.633899    0.165361    0.556185     0.007504
AU2392   AU        0.642943    0.214895    0.522931     0.007504
AU2393   AU        0.663009    0.168320    0.518611     0.007504
AU2394   AU        0.668382    0.204885    0.558352     0.007504
AU2395   AU        0.694253    0.169050    0.559255     0.007504
AU2396   AU        0.692415    0.199899    0.521840     0.007504
NI2397   NI        0.734952    0.175637    0.524952     0.004307
AU2398   AU        0.727470    0.204646    0.557591     0.007504
NI2399   NI        0.777095    0.220403    0.496160     0.004307
NI2400   NI        0.042029    0.311955    0.548851     0.004307
NI2401   NI        0.087760    0.233628    0.502598     0.004307
NI2402   NI        0.084225    0.218761    0.546549     0.004307
AU2403   AU        0.125111    0.241874    0.545385     0.007504
AU2404   AU        0.121261    0.272143    0.507771     0.007504
AU2405   AU        0.158980    0.239214    0.510981     0.007504
AU2406   AU        0.161211    0.279937    0.537777     0.007504
AU2407   AU        0.197125    0.243209    0.545256     0.007504
AU2408   AU        0.204098    0.282714    0.509921     0.007504
AU2409   AU        0.235732    0.244223    0.513882     0.007504
NI2410   NI        0.238955    0.276896    0.549356     0.004307
AU2411   AU        0.274355    0.241705    0.546151     0.007504
AU2412   AU        0.272635    0.281126    0.511900     0.007504
AU2413   AU        0.310561    0.243903    0.511741     0.007504
AU2414   AU        0.311252    0.279719    0.542875     0.007504
AU2415   AU        0.347317    0.240705    0.546526     0.007504
AU2416   AU        0.350870    0.272634    0.510912     0.007504
AU2417   AU        0.389081    0.240366    0.511378     0.007504
NI2418   NI        0.384163    0.270289    0.548173     0.004307
AU2419   AU        0.418746    0.236177    0.553305     0.007504
AU2420   AU        0.392452    0.301415    0.516311     0.007504
AU2421   AU        0.460127    0.243264    0.529279     0.007504
AU2422   AU        0.435531    0.285895    0.540932     0.007504
AU2423   AU        0.496732    0.230299    0.561738     0.007504
NI2424   NI        0.487355    0.300966    0.502253     0.004307
NI2425   NI        0.506278    0.252712    0.511020     0.004307
AU2426   AU        0.486595    0.280258    0.545535     0.007504
NI2427   NI        0.566126    0.241820    0.539005     0.004307
NI2428   NI        0.530165    0.287611    0.528395     0.004307
NI2429   NI        0.596233    0.231026    0.506454     0.004307
NI2430   NI        0.576600    0.285383    0.541476     0.004307
NI2431   NI        0.626440    0.258232    0.542355     0.004307
NI2432   NI        0.643194    0.284975    0.498526     0.004307
AU2433   AU        0.681976    0.244498    0.502954     0.007504
AU2434   AU        0.668186    0.282022    0.541214     0.007504
AU2435   AU        0.699073    0.241088    0.555890     0.007504
AU2436   AU        0.711681    0.274153    0.523830     0.007504
AU2437   AU        0.726411    0.227609    0.514087     0.007504
AU2438   AU        0.742021    0.283224    0.555685     0.007504
NI2439   NI        0.758447    0.233065    0.550402     0.004307
AU2440   AU        0.759633    0.261589    0.513453     0.007504
NI2441   NI        0.803098    0.255053    0.479179     0.004307
NI2442   NI        0.794563    0.254606    0.538450     0.004307
NI2443   NI        0.830750    0.284780    0.492238     0.004307
NI2444   NI        0.057344    0.355104    0.571586     0.004307
NI2445   NI        0.053880    0.373611    0.531002     0.004307
NI2446   NI        0.084876    0.293509    0.524175     0.004307
NI2447   NI        0.078628    0.339566    0.527412     0.004307
AU2448   AU        0.126535    0.317045    0.533727     0.007504
AU2449   AU        0.137928    0.355181    0.505891     0.007504
AU2450   AU        0.170933    0.318248    0.507926     0.007504
NI2451   NI        0.165621    0.355035    0.537829     0.004307
NI2452   NI        0.205389    0.317183    0.544114     0.004307
NI2453   NI        0.209459    0.364515    0.504504     0.004307
NI2454   NI        0.243916    0.312244    0.516746     0.004307
NI2455   NI        0.239616    0.354039    0.534356     0.004307
NI2456   NI        0.274839    0.344719    0.559158     0.004307
NI2457   NI        0.279906    0.340361    0.515119     0.004307
NI2458   NI        0.313556    0.295423    0.504186     0.004307
AU2459   AU        0.320526    0.362917    0.560236     0.007504
NI2460   NI        0.345173    0.318932    0.546724     0.004307
NI2461   NI        0.326434    0.357614    0.518009     0.004307
NI2462   NI        0.348129    0.316685    0.503184     0.004307
NI2463   NI        0.384603    0.339511    0.552072     0.004307
NI2464   NI        0.426269    0.325041    0.563409     0.004307
AU2465   AU        0.396146    0.353109    0.510785     0.007504
AU2466   AU        0.434901    0.322099    0.507360     0.007504
NI2467   NI        0.437852    0.362460    0.531219     0.004307
NI2468   NI        0.467015    0.325277    0.535655     0.004307
NI2469   NI        0.477091    0.358778    0.507142     0.004307
NI2470   NI        0.509338    0.328397    0.531976     0.004307
NI2471   NI        0.474089    0.365223    0.560491     0.004307
NI2472   NI        0.551818    0.332386    0.534780     0.004307
NI2473   NI        0.558993    0.373109    0.498712     0.004307
NI2474   NI        0.588327    0.311047    0.508601     0.004307
AU2475   AU        0.593660    0.356126    0.530577     0.007504
AU2476   AU        0.628839    0.317220    0.539319     0.007504
NI2477   NI        0.627181    0.355104    0.503274     0.004307
NI2478   NI        0.663556    0.332844    0.515868     0.004307
NI2479   NI        0.669788    0.368506    0.534530     0.004307
AU2480   AU        0.704323    0.317411    0.547918     0.007504
NI2481   NI        0.715471    0.355321    0.519819     0.004307
AU2482   AU        0.736003    0.309215    0.512477     0.007504
AU2483   AU        0.752763    0.335991    0.550199     0.007504
AU2484   AU        0.780453    0.297736    0.530938     0.007504
NI2485   NI        0.786330    0.342229    0.522282     0.004307
NI2486   NI        0.835261    0.335581    0.527796     0.004307
AU2487   AU        0.813134    0.352087    0.565634     0.007504
NI2488   NI        0.817208    0.303800    0.563142     0.004307
NI2489   NI        0.847456    0.333974    0.482388     0.004307
NI2490   NI        0.088830    0.385248    0.566791     0.004307
NI2491   NI        0.058856    0.413854    0.523683     0.004307
AU2492   AU        0.089355    0.407640    0.491802     0.007504
AU2493   AU        0.098329    0.430215    0.533729     0.007504
AU2494   AU        0.106801    0.378988    0.528742     0.007504
NI2495   NI        0.125957    0.430227    0.493874     0.004307
NI2496   NI        0.172881    0.393623    0.509536     0.004307
AU2497   AU        0.150585    0.435541    0.535263     0.007504
NI2498   NI        0.211766    0.398013    0.546733     0.004307
NI2499   NI        0.201000    0.437875    0.527364     0.004307
NI2500   NI        0.246348    0.412979    0.513984     0.004307
NI2501   NI        0.252568    0.430679    0.574889     0.004307
NI2502   NI        0.281200    0.398405    0.557729     0.004307
NI2503   NI        0.279591    0.381028    0.517820     0.004307
NI2504   NI        0.322491    0.398442    0.530602     0.004307
NI2505   NI        0.292625    0.431877    0.528486     0.004307
NI2506   NI        0.364355    0.378617    0.552031     0.004307
NI2507   NI        0.352749    0.428197    0.534568     0.004307
AU2508   AU        0.362335    0.391139    0.501639     0.007504
NI2509   NI        0.367459    0.414965    0.573559     0.004307
NI2510   NI        0.405859    0.388008    0.558473     0.004307
NI2511   NI        0.378362    0.433184    0.497822     0.004307
NI2512   NI        0.411952    0.403905    0.497484     0.004307
NI2513   NI        0.454500    0.445377    0.547664     0.004307
NI2514   NI        0.467321    0.399399    0.531378     0.004307
NI2515   NI        0.465417    0.436915    0.504821     0.004307
NI2516   NI        0.521834    0.356646    0.502194     0.004307
NI2517   NI        0.507865    0.392146    0.543868     0.004307
NI2518   NI        0.553147    0.377664    0.539207     0.004307
NI2519   NI        0.543044    0.417204    0.534793     0.004307
NI2520   NI        0.584518    0.416132    0.522116     0.004307
NI2521   NI        0.575624    0.447082    0.562688     0.004307
NI2522   NI        0.623758    0.392612    0.532911     0.004307
NI2523   NI        0.625541    0.414219    0.492703     0.004307
NI2524   NI        0.666311    0.407177    0.485799     0.004307
AU2525   AU        0.657856    0.419576    0.531844     0.007504
NI2526   NI        0.707261    0.403590    0.560905     0.004307
NI2527   NI        0.701821    0.409065    0.513415     0.004307
AU2528   AU        0.781357    0.376136    0.494625     0.007504
NI2529   NI        0.746296    0.386009    0.528348     0.004307
AU2530   AU        0.776426    0.383550    0.558516     0.007504
AU2531   AU        0.778422    0.417809    0.520729     0.007504
AU2532   AU        0.815935    0.383710    0.529747     0.007504
AU2533   AU        0.809088    0.426621    0.561653     0.007504
NI2534   NI        0.855348    0.365979    0.550268     0.004307
NI2535   NI        0.841749    0.423023    0.520389     0.004307
NI2536   NI        0.025126    0.438600    0.554633     0.004307
NI2537   NI        0.061940    0.454860    0.532109     0.004307
NI2538   NI        0.053129    0.495825    0.544516     0.004307
NI2539   NI        0.050473    0.475417    0.499407     0.004307
AU2540   AU        0.082719    0.516325    0.573060     0.007504
AU2541   AU        0.104758    0.477865    0.552527     0.007504
NI2542   NI        0.122013    0.509663    0.530612     0.004307
NI2543   NI        0.140727    0.473309    0.511206     0.004307
NI2544   NI        0.167166    0.507240    0.558862     0.004307
NI2545   NI        0.181433    0.474150    0.537100     0.004307
NI2546   NI        0.163471    0.514427    0.519374     0.004307
NI2547   NI        0.249876    0.460919    0.527925     0.004307
NI2548   NI        0.207711    0.508935    0.526675     0.004307
NI2549   NI        0.230023    0.470924    0.562003     0.004307
NI2550   NI        0.248520    0.503236    0.515886     0.004307
NI2551   NI        0.288838    0.480170    0.531702     0.004307
NI2552   NI        0.262903    0.507406    0.555684     0.004307
NI2553   NI        0.326003    0.478887    0.550734     0.004307
NI2554   NI        0.322268    0.473090    0.504157     0.004307
NI2555   NI        0.364425    0.460137    0.470808     0.004307
NI2556   NI        0.359699    0.481697    0.524058     0.004307
NI2557   NI        0.399139    0.455822    0.531892     0.004307
NI2558   NI        0.418903    0.499152    0.480961     0.004307
NI2559   NI        0.424250    0.454156    0.499279     0.004307
NI2560   NI        0.420311    0.496738    0.524088     0.004307
NI2561   NI        0.475476    0.487118    0.547858     0.004307
NI2562   NI        0.460061    0.490255    0.503605     0.004307
NI2563   NI        0.502940    0.471059    0.518571     0.004307
NI2564   NI        0.502457    0.498213    0.579506     0.004307
NI2565   NI        0.527963    0.456995    0.566578     0.004307
NI2566   NI        0.542365    0.495983    0.513226     0.004307
NI2567   NI        0.572464    0.461125    0.516530     0.004307
NI2568   NI        0.551211    0.496534    0.562314     0.004307
AU2569   AU        0.618255    0.452102    0.532430     0.007504
AU2570   AU        0.611012    0.495232    0.518670     0.007504
NI2571   NI        0.651131    0.458683    0.506184     0.004307
NI2572   NI        0.650520    0.488571    0.547204     0.004307
NI2573   NI        0.696431    0.450087    0.534116     0.004307
NI2574   NI        0.702937    0.485795    0.502052     0.004307
NI2575   NI        0.739512    0.449070    0.510762     0.004307
NI2576   NI        0.730496    0.490121    0.542309     0.004307
AU2577   AU        0.770950    0.459716    0.551506     0.007504
AU2578   AU        0.771634    0.491282    0.510937     0.007504
AU2579   AU        0.807135    0.455893    0.518811     0.007504
AU2580   AU        0.796317    0.503376    0.553332     0.007504
NI2581   NI        0.838495    0.475263    0.560748     0.004307
AU2582   AU        0.832324    0.497941    0.517321     0.007504
NI2583   NI        0.872865    0.453264    0.553460     0.004307
NI2584   NI        0.054649    0.529126    0.514009     0.004307
NI2585   NI        0.047685    0.570354    0.522505     0.004307
AU2586   AU        0.101248    0.529117    0.500324     0.007504
AU2587   AU        0.087292    0.550578    0.544287     0.007504
AU2588   AU        0.145146    0.547887    0.558244     0.007504
AU2589   AU        0.121922    0.571146    0.515766     0.007504
NI2590   NI        0.138085    0.546431    0.484852     0.004307
NI2591   NI        0.155508    0.591573    0.540880     0.004307
NI2592   NI        0.195477    0.542341    0.553294     0.004307
NI2593   NI        0.193097    0.561075    0.504360     0.004307
NI2594   NI        0.200439    0.520409    0.484335     0.004307
NI2595   NI        0.243148    0.580661    0.550406     0.004307
NI2596   NI        0.238162    0.540070    0.536329     0.004307
NI2597   NI        0.262500    0.558831    0.507029     0.004307
AU2598   AU        0.288375    0.529358    0.525244     0.007504
AU2599   AU        0.329475    0.560654    0.571745     0.007504
AU2600   AU        0.341057    0.528218    0.535680     0.007504
NI2601   NI        0.320123    0.562495    0.514992     0.004307
AU2602   AU        0.361291    0.553991    0.492816     0.007504
NI2603   NI        0.369265    0.575544    0.555036     0.004307
AU2604   AU        0.391321    0.539783    0.535219     0.007504
AU2605   AU        0.415237    0.544407    0.491427     0.007504
AU2606   AU        0.443022    0.542002    0.532677     0.007504
NI2607   NI        0.455406    0.580614    0.564564     0.004307
NI2608   NI        0.485757    0.525121    0.527320     0.004307
NI2609   NI        0.493458    0.577661    0.477856     0.004307
NI2610   NI        0.512696    0.537270    0.485299     0.004307
NI2611   NI        0.488241    0.563291    0.543639     0.004307
NI2612   NI        0.536839    0.549677    0.523444     0.004307
NI2613   NI        0.537150    0.584980    0.498189     0.004307
NI2614   NI        0.575929    0.525139    0.522721     0.004307
NI2615   NI        0.574656    0.553909    0.557360     0.004307
NI2616   NI        0.617422    0.530144    0.551250     0.004307
AU2617   AU        0.605386    0.557082    0.516546     0.007504
NI2618   NI        0.653830    0.519625    0.514657     0.004307
NI2619   NI        0.648832    0.563929    0.534992     0.004307
NI2620   NI        0.692117    0.505328    0.546005     0.004307
NI2621   NI        0.690782    0.564766    0.501407     0.004307
AU2622   AU        0.734661    0.525627    0.513878     0.007504
NI2623   NI        0.721966    0.566970    0.539354     0.004307
AU2624   AU        0.763261    0.540316    0.551719     0.007504
AU2625   AU        0.762225    0.568375    0.509268     0.007504
AU2626   AU        0.794830    0.535596    0.514171     0.007504
AU2627   AU        0.813632    0.548330    0.559641     0.007504
NI2628   NI        0.843472    0.543401    0.520670     0.004307
NI2629   NI        0.836838    0.572118    0.488175     0.004307
NI2630   NI        0.067524    0.590722    0.554098     0.004307
NI2631   NI        0.050632    0.645513    0.511310     0.004307
AU2632   AU        0.079674    0.603546    0.505395     0.007504
AU2633   AU        0.095707    0.633722    0.558913     0.007504
AU2634   AU        0.115579    0.591789    0.559299     0.007504
AU2635   AU        0.122928    0.625500    0.517657     0.007504
NI2636   NI        0.158189    0.593861    0.499426     0.004307
AU2637   AU        0.164983    0.630458    0.548898     0.007504
NI2638   NI        0.201065    0.591389    0.546235     0.004307
NI2639   NI        0.188191    0.637019    0.507682     0.004307
NI2640   NI        0.231536    0.593339    0.510128     0.004307
AU2641   AU        0.228115    0.632174    0.539208     0.007504
NI2642   NI        0.291775    0.577545    0.547361     0.004307
AU2643   AU        0.265696    0.631423    0.499375     0.007504
NI2644   NI        0.292459    0.593600    0.501190     0.004307
NI2645   NI        0.298948    0.629010    0.538269     0.004307
NI2646   NI        0.337666    0.597480    0.536351     0.004307
AU2647   AU        0.320016    0.629715    0.499713     0.007504
AU2648   AU        0.367487    0.612158    0.490723     0.007504
NI2649   NI        0.372189    0.623342    0.534749     0.004307
AU2650   AU        0.395777    0.582699    0.515121     0.007504
AU2651   AU        0.421482    0.625649    0.499488     0.007504
NI2652   NI        0.446734    0.584772    0.507114     0.004307
NI2653   NI        0.436502    0.619739    0.551356     0.004307
NI2654   NI        0.507687    0.596989    0.561798     0.004307
NI2655   NI        0.463497    0.633865    0.521947     0.004307
NI2656   NI        0.493128    0.595436    0.515863     0.004307
NI2657   NI        0.525958    0.632617    0.523515     0.004307
NI2658   NI        0.549560    0.589187    0.557316     0.004307
NI2659   NI        0.567299    0.639388    0.511598     0.004307
NI2660   NI        0.580265    0.600947    0.528195     0.004307
AU2661   AU        0.598632    0.643252    0.548407     0.007504
NI2662   NI        0.626306    0.606055    0.537475     0.004307
NI2663   NI        0.626507    0.648986    0.514926     0.004307
AU2664   AU        0.662280    0.605468    0.495498     0.007504
AU2665   AU        0.665778    0.635727    0.532321     0.007504
AU2666   AU        0.688482    0.592251    0.539547     0.007504
AU2667   AU        0.700429    0.639278    0.494351     0.007504
AU2668   AU        0.724359    0.603409    0.506333     0.007504
AU2669   AU        0.727257    0.641096    0.537244     0.007504
AU2670   AU        0.762000    0.605464    0.539754     0.007504
AU2671   AU        0.756882    0.638821    0.496434     0.007504
AU2672   AU        0.792502    0.604950    0.494359     0.007504
AU2673   AU        0.806509    0.579942    0.529695     0.007504
NI2674   NI        0.832084    0.640924    0.490155     0.004307
NI2675   NI        0.794262    0.642672    0.527723     0.004307
AU2676   AU        0.099631    0.668071    0.523209     0.007504
AU2677   AU        0.132667    0.662573    0.555182     0.007504
AU2678   AU        0.132235    0.705553    0.516301     0.007504
AU2679   AU        0.151872    0.664879    0.516314     0.007504
AU2680   AU        0.160007    0.701345    0.553380     0.007504
AU2681   AU        0.196162    0.669517    0.545193     0.007504
AU2682   AU        0.184754    0.694413    0.511385     0.007504
AU2683   AU        0.226251    0.668483    0.504510     0.007504
AU2684   AU        0.229271    0.697048    0.543101     0.007504
AU2685   AU        0.265508    0.666554    0.537839     0.007504
AU2686   AU        0.264480    0.702746    0.504101     0.007504
AU2687   AU        0.297520    0.669405    0.499235     0.007504
AU2688   AU        0.297452    0.702475    0.538069     0.007504
AU2689   AU        0.331058    0.662569    0.538287     0.007504
AU2690   AU        0.332144    0.703384    0.502885     0.007504
NI2691   NI        0.395433    0.660167    0.528032     0.004307
NI2692   NI        0.364933    0.695095    0.529999     0.004307
NI2693   NI        0.411072    0.689407    0.558463     0.004307
NI2694   NI        0.413307    0.722082    0.514172     0.004307
NI2695   NI        0.481847    0.662147    0.495571     0.004307
NI2696   NI        0.442428    0.677875    0.530280     0.004307
NI2697   NI        0.499995    0.671153    0.539376     0.004307
NI2698   NI        0.486727    0.701963    0.513423     0.004307
NI2699   NI        0.544793    0.681363    0.518132     0.004307
NI2700   NI        0.524564    0.716119    0.551612     0.004307
AU2701   AU        0.564310    0.678173    0.565034     0.007504
AU2702   AU        0.564732    0.719200    0.520357     0.007504
NI2703   NI        0.591578    0.683134    0.524355     0.004307
AU2704   AU        0.592117    0.718099    0.562658     0.007504
AU2705   AU        0.631718    0.682179    0.554342     0.007504
AU2706   AU        0.621442    0.726029    0.523906     0.007504
AU2707   AU        0.676470    0.681417    0.494124     0.007504
AU2708   AU        0.666624    0.714164    0.561945     0.007504
AU2709   AU        0.693887    0.679202    0.544140     0.007504
AU2710   AU        0.713609    0.722615    0.526922     0.007504
AU2711   AU        0.723696    0.680678    0.503216     0.007504
NI2712   NI        0.737906    0.703118    0.556605     0.004307
NI2713   NI        0.773053    0.658436    0.565024     0.004307
NI2714   NI        0.778233    0.720534    0.490274     0.004307
NI2715   NI        0.760358    0.680683    0.521075     0.004307
AU2716   AU        0.171450    0.736754    0.514466     0.007504
AU2717   AU        0.198335    0.727126    0.549357     0.007504
AU2718   AU        0.205083    0.765196    0.517687     0.007504
AU2719   AU        0.227559    0.725478    0.509406     0.007504
NI2720   NI        0.221126    0.794306    0.546561     0.004307
AU2721   AU        0.286328    0.750857    0.556452     0.007504
AU2722   AU        0.253767    0.765717    0.516429     0.007504
AU2723   AU        0.297335    0.742910    0.507169     0.007504
AU2724   AU        0.323346    0.788214    0.559926     0.007504
AU2725   AU        0.335649    0.739600    0.542335     0.007504
AU2726   AU        0.331936    0.777481    0.512574     0.007504
AU2727   AU        0.370554    0.739285    0.510236     0.007504
AU2728   AU        0.369791    0.773537    0.541840     0.007504
NI2729   NI        0.426949    0.734369    0.550475     0.004307
AU2730   AU        0.410502    0.767537    0.512076     0.007504
NI2731   NI        0.456277    0.733000    0.513443     0.004307
AU2732   AU        0.442086    0.780646    0.548028     0.007504
NI2733   NI        0.485022    0.749438    0.560167     0.004307
AU2734   AU        0.480442    0.768608    0.518540     0.007504
AU2735   AU        0.525394    0.749622    0.512383     0.007504
AU2736   AU        0.520826    0.785338    0.548651     0.007504
AU2737   AU        0.557408    0.755491    0.555340     0.007504
AU2738   AU        0.564495    0.795843    0.525614     0.007504
AU2739   AU        0.591701    0.762708    0.516690     0.007504
AU2740   AU        0.596651    0.786303    0.560824     0.007504
AU2741   AU        0.626573    0.746509    0.567240     0.007504
AU2742   AU        0.638739    0.781136    0.531979     0.007504
AU2743   AU        0.667932    0.742223    0.521863     0.007504
NI2744   NI        0.684262    0.805235    0.551951     0.004307
NI2745   NI        0.691537    0.751251    0.562616     0.004307
NI2746   NI        0.697347    0.814255    0.505191     0.004307
NI2747   NI        0.698857    0.773049    0.522398     0.004307
NI2748   NI        0.261468    0.803333    0.485483     0.004307
AU2749   AU        0.269648    0.791229    0.550360     0.007504
NI2750   NI        0.255088    0.827041    0.524937     0.004307
NI2751   NI        0.297222    0.844787    0.481210     0.004307
NI2752   NI        0.297432    0.883958    0.530051     0.004307
NI2753   NI        0.303689    0.815948    0.517925     0.004307
NI2754   NI        0.335616    0.840270    0.551441     0.004307
AU2755   AU        0.368606    0.817406    0.510383     0.007504
AU2756   AU        0.384806    0.846816    0.552788     0.007504
AU2757   AU        0.402031    0.804758    0.544478     0.007504
AU2758   AU        0.413727    0.841609    0.513471     0.007504
AU2759   AU        0.446516    0.806456    0.505204     0.007504
AU2760   AU        0.434422    0.831978    0.550301     0.007504
AU2761   AU        0.479834    0.815176    0.539544     0.007504
AU2762   AU        0.460481    0.855771    0.514804     0.007504
AU2763   AU        0.517089    0.806090    0.505749     0.007504
NI2764   NI        0.537837    0.835320    0.544164     0.004307
NI2765   NI        0.554840    0.843826    0.507746     0.004307
NI2766   NI        0.518103    0.875138    0.563972     0.004307
AU2767   AU        0.605195    0.814407    0.519048     0.007504
NI2768   NI        0.580628    0.835978    0.551237     0.004307
NI2769   NI        0.625632    0.820986    0.562254     0.004307
NI2770   NI        0.619809    0.853007    0.492897     0.004307
NI2771   NI        0.651191    0.821655    0.517274     0.004307
NI2772   NI        0.426257    0.878647    0.537254     0.004307
NI2773   NI        0.348487    0.054838    0.562247     0.004307
NI2774   NI        0.367299    0.051241    0.600056     0.004307
NI2775   NI        0.448675    0.073265    0.553540     0.004307
NI2776   NI        0.427300    0.058099    0.617144     0.004307
NI2777   NI        0.484868    0.076159    0.588510     0.004307
NI2778   NI        0.515333    0.066218    0.623649     0.004307
NI2779   NI        0.554070    0.072699    0.599735     0.004307
NI2780   NI        0.191987    0.149260    0.588967     0.004307
NI2781   NI        0.249033    0.136441    0.631258     0.004307
NI2782   NI        0.247767    0.105843    0.592688     0.004307
AU2783   AU        0.270756    0.142954    0.590966     0.007504
NI2784   NI        0.290264    0.101730    0.598161     0.004307
AU2785   AU        0.296588    0.138033    0.634707     0.007504
NI2786   NI        0.336912    0.092729    0.598487     0.004307
AU2787   AU        0.326032    0.134778    0.591439     0.007504
AU2788   AU        0.361663    0.111146    0.570068     0.007504
AU2789   AU        0.366370    0.131108    0.620558     0.007504
NI2790   NI        0.397209    0.092876    0.615158     0.004307
AU2791   AU        0.405016    0.129981    0.588001     0.007504
AU2792   AU        0.444745    0.098451    0.595330     0.007504
AU2793   AU        0.438150    0.131781    0.631696     0.007504
AU2794   AU        0.483171    0.105023    0.625723     0.007504
AU2795   AU        0.482466    0.128346    0.587261     0.007504
AU2796   AU        0.522756    0.104318    0.590627     0.007504
AU2797   AU        0.520798    0.137749    0.630476     0.007504
NI2798   NI        0.558087    0.109444    0.629211     0.004307
AU2799   AU        0.556833    0.143193    0.591981     0.007504
AU2800   AU        0.586105    0.109228    0.590895     0.007504
AU2801   AU        0.592431    0.145329    0.626578     0.007504
NI2802   NI        0.613972    0.106309    0.630377     0.004307
AU2803   AU        0.626913    0.139134    0.590078     0.007504
NI2804   NI        0.654169    0.138687    0.631293     0.004307
NI2805   NI        0.679077    0.129514    0.595674     0.004307
NI2806   NI        0.118698    0.189516    0.559385     0.004307
NI2807   NI        0.154021    0.153392    0.562040     0.004307
NI2808   NI        0.149089    0.208014    0.602299     0.004307
NI2809   NI        0.192642    0.194576    0.620290     0.004307
AU2810   AU        0.196431    0.211810    0.581426     0.007504
AU2811   AU        0.232672    0.177507    0.589090     0.007504
AU2812   AU        0.235927    0.215772    0.619583     0.007504
AU2813   AU        0.270764    0.180311    0.621601     0.007504
AU2814   AU        0.267836    0.212736    0.584052     0.007504
AU2815   AU        0.304411    0.177383    0.585016     0.007504
AU2816   AU        0.306777    0.214945    0.618935     0.007504
AU2817   AU        0.339364    0.173490    0.621758     0.007504
AU2818   AU        0.343869    0.210372    0.583878     0.007504
AU2819   AU        0.371531    0.165150    0.583366     0.007504
AU2820   AU        0.369589    0.204401    0.622232     0.007504
AU2821   AU        0.403194    0.168158    0.625465     0.007504
AU2822   AU        0.410968    0.200664    0.589688     0.007504
AU2823   AU        0.442208    0.163249    0.592039     0.007504
AU2824   AU        0.459466    0.208030    0.611779     0.007504
AU2825   AU        0.480265    0.162823    0.622761     0.007504
NI2826   NI        0.490379    0.194345    0.583019     0.004307
AU2827   AU        0.518662    0.163948    0.591062     0.007504
AU2828   AU        0.512218    0.198588    0.631036     0.007504
AU2829   AU        0.556284    0.178706    0.628147     0.007504
AU2830   AU        0.540146    0.208647    0.588964     0.007504
AU2831   AU        0.593359    0.178296    0.589655     0.007504
AU2832   AU        0.602516    0.220886    0.617128     0.007504
AU2833   AU        0.630799    0.178245    0.621331     0.007504
AU2834   AU        0.630384    0.205210    0.579146     0.007504
AU2835   AU        0.666262    0.171885    0.596148     0.007504
AU2836   AU        0.656116    0.218037    0.617338     0.007504
NI2837   NI        0.708869    0.172299    0.623453     0.004307
AU2838   AU        0.698843    0.207491    0.595257     0.007504
NI2839   NI        0.739109    0.171498    0.581113     0.004307
NI2840   NI        0.732133    0.220938    0.633116     0.004307
NI2841   NI        0.775719    0.222485    0.599706     0.004307
NI2842   NI        0.082512    0.266853    0.562019     0.004307
NI2843   NI        0.115774    0.241259    0.599915     0.004307
AU2844   AU        0.128706    0.282725    0.574393     0.007504
AU2845   AU        0.160045    0.246616    0.579147     0.007504
AU2846   AU        0.159267    0.282890    0.615493     0.007504
AU2847   AU        0.196450    0.248070    0.615655     0.007504
AU2848   AU        0.193338    0.281918    0.577821     0.007504
AU2849   AU        0.232867    0.247178    0.578988     0.007504
AU2850   AU        0.208349    0.288966    0.619910     0.007504
AU2851   AU        0.270744    0.252766    0.612690     0.007504
NI2852   NI        0.267724    0.304310    0.593125     0.004307
AU2853   AU        0.310706    0.243323    0.579176     0.007504
NI2854   NI        0.304783    0.280381    0.607219     0.004307
AU2855   AU        0.344035    0.249749    0.621217     0.007504
AU2856   AU        0.346204    0.280718    0.579547     0.007504
AU2857   AU        0.380677    0.242397    0.585065     0.007504
NI2858   NI        0.384645    0.279955    0.619669     0.004307
AU2859   AU        0.424085    0.244254    0.613911     0.007504
NI2860   NI        0.412960    0.280599    0.579293     0.004307
NI2861   NI        0.455194    0.253762    0.573914     0.004307
NI2862   NI        0.441591    0.286793    0.619457     0.004307
NI2863   NI        0.497424    0.235024    0.605897     0.004307
NI2864   NI        0.461820    0.297578    0.580770     0.004307
NI2865   NI        0.501063    0.285371    0.594507     0.004307
NI2866   NI        0.533161    0.272234    0.619577     0.004307
AU2867   AU        0.555282    0.229770    0.631851     0.007504
NI2868   NI        0.537002    0.259620    0.565135     0.004307
NI2869   NI        0.587607    0.226281    0.573820     0.004307
NI2870   NI        0.569276    0.263970    0.597813     0.004307
AU2871   AU        0.625912    0.257877    0.614492     0.007504
NI2872   NI        0.627414    0.281434    0.578719     0.004307
AU2873   AU        0.661677    0.248113    0.579963     0.007504
AU2874   AU        0.661329    0.284453    0.616392     0.007504
AU2875   AU        0.693302    0.248382    0.620782     0.007504
AU2876   AU        0.697543    0.282947    0.581337     0.007504
AU2877   AU        0.731582    0.246501    0.589366     0.007504
AU2878   AU        0.728756    0.285020    0.617058     0.007504
NI2879   NI        0.776992    0.265553    0.618832     0.004307
NI2880   NI        0.774039    0.298533    0.581505     0.004307
NI2881   NI        0.809992    0.255783    0.587649     0.004307
NI2882   NI        0.030279    0.363028    0.603474     0.004307
AU2883   AU        0.092120    0.318249    0.570090     0.007504
AU2884   AU        0.094208    0.354516    0.604926     0.007504
AU2885   AU        0.131530    0.323863    0.602282     0.007504
AU2886   AU        0.129564    0.357440    0.567866     0.007504
AU2887   AU        0.165776    0.322485    0.565462     0.007504
AU2888   AU        0.156107    0.369085    0.604024     0.007504
AU2889   AU        0.173003    0.324256    0.620757     0.007504
NI2890   NI        0.197337    0.359119    0.592027     0.004307
NI2891   NI        0.225133    0.319928    0.586135     0.004307
NI2892   NI        0.211080    0.344508    0.630020     0.004307
NI2893   NI        0.302722    0.321662    0.621427     0.004307
NI2894   NI        0.258833    0.348742    0.615253     0.004307
NI2895   NI        0.308393    0.313065    0.571171     0.004307
NI2896   NI        0.299464    0.360859    0.596323     0.004307
NI2897   NI        0.340085    0.296192    0.624373     0.004307
NI2898   NI        0.346725    0.332818    0.597205     0.004307
NI2899   NI        0.381462    0.313126    0.589864     0.004307
NI2900   NI        0.373590    0.344940    0.628350     0.004307
NI2901   NI        0.406862    0.316563    0.628952     0.004307
NI2902   NI        0.433251    0.371662    0.588878     0.004307
NI2903   NI        0.448357    0.328656    0.608545     0.004307
NI2904   NI        0.464748    0.369573    0.625288     0.004307
NI2905   NI        0.490243    0.322753    0.625753     0.004307
NI2906   NI        0.490578    0.331674    0.578704     0.004307
AU2907   AU        0.534520    0.310271    0.575781     0.007504
AU2908   AU        0.533368    0.344574    0.612150     0.007504
AU2909   AU        0.564494    0.310750    0.616904     0.007504
AU2910   AU        0.570644    0.348094    0.578294     0.007504
NI2911   NI        0.597875    0.315326    0.580085     0.004307
AU2912   AU        0.601945    0.346997    0.618691     0.007504
AU2913   AU        0.629004    0.314730    0.615316     0.007504
AU2914   AU        0.622465    0.360329    0.572184     0.007504
AU2915   AU        0.658894    0.319851    0.577946     0.007504
AU2916   AU        0.655868    0.358136    0.608728     0.007504
AU2917   AU        0.692073    0.319573    0.616056     0.007504
AU2918   AU        0.694123    0.356402    0.576749     0.007504
AU2919   AU        0.732373    0.321700    0.587227     0.007504
AU2920   AU        0.725486    0.358507    0.618150     0.007504
NI2921   NI        0.768516    0.315159    0.618610     0.004307
AU2922   AU        0.772585    0.351870    0.594754     0.007504
NI2923   NI        0.815589    0.325900    0.609339     0.004307
NI2924   NI        0.843872    0.369306    0.616046     0.004307
NI2925   NI        0.816379    0.284379    0.619532     0.004307
NI2926   NI        0.060205    0.356680    0.632142     0.004307
NI2927   NI        0.066144    0.424461    0.565532     0.004307
NI2928   NI        0.069065    0.399155    0.605724     0.004307
NI2929   NI        0.090486    0.440206    0.611341     0.004307
AU2930   AU        0.119662    0.395299    0.603636     0.007504
AU2931   AU        0.122014    0.434177    0.571613     0.007504
AU2932   AU        0.155913    0.398068    0.565384     0.007504
AU2933   AU        0.159264    0.431640    0.605902     0.007504
NI2934   NI        0.178674    0.397104    0.628088     0.004307
AU2935   AU        0.192323    0.436627    0.569276     0.007504
NI2936   NI        0.241053    0.370810    0.576853     0.004307
AU2937   AU        0.217200    0.406591    0.600716     0.007504
NI2938   NI        0.272550    0.393091    0.609675     0.004307
NI2939   NI        0.290071    0.430023    0.603065     0.004307
NI2940   NI        0.315065    0.404790    0.578968     0.004307
NI2941   NI        0.323517    0.406540    0.622229     0.004307
AU2942   AU        0.347214    0.377174    0.597032     0.007504
NI2943   NI        0.313727    0.443672    0.566084     0.004307
NI2944   NI        0.386231    0.363160    0.588145     0.004307
NI2945   NI        0.383678    0.438664    0.609682     0.004307
NI2946   NI        0.380163    0.399113    0.621368     0.004307
NI2947   NI        0.409051    0.446722    0.575178     0.004307
NI2948   NI        0.496247    0.385932    0.591558     0.004307
NI2949   NI        0.446936    0.424634    0.592712     0.004307
NI2950   NI        0.490759    0.417333    0.617266     0.004307
AU2951   AU        0.493718    0.426355    0.569694     0.007504
NI2952   NI        0.523667    0.359141    0.566543     0.004307
NI2953   NI        0.522226    0.388403    0.627559     0.004307
AU2954   AU        0.571745    0.378751    0.615841     0.007504
AU2955   AU        0.538443    0.416953    0.586989     0.007504
AU2956   AU        0.587764    0.393735    0.569799     0.007504
AU2957   AU        0.582917    0.425797    0.609194     0.007504
AU2958   AU        0.620964    0.394260    0.607758     0.007504
NI2959   NI        0.622788    0.434791    0.571815     0.004307
AU2960   AU        0.656158    0.397213    0.573972     0.007504
AU2961   AU        0.655893    0.431170    0.608758     0.007504
AU2962   AU        0.691334    0.394917    0.607810     0.007504
NI2963   NI        0.678326    0.442062    0.573543     0.004307
AU2964   AU        0.732126    0.375729    0.579701     0.007504
AU2965   AU        0.721449    0.433553    0.606787     0.007504
AU2966   AU        0.759430    0.394991    0.614542     0.007504
AU2967   AU        0.766426    0.427363    0.587241     0.007504
AU2968   AU        0.804961    0.392257    0.596600     0.007504
AU2969   AU        0.797108    0.429308    0.618483     0.007504
NI2970   NI        0.841509    0.446694    0.601780     0.004307
NI2971   NI        0.849044    0.408186    0.577628     0.004307
NI2972   NI        0.060687    0.513285    0.620694     0.004307
NI2973   NI        0.015969    0.526640    0.532510     0.004307
NI2974   NI        0.080835    0.477302    0.597948     0.004307
AU2975   AU        0.106076    0.510792    0.632512     0.007504
AU2976   AU        0.123758    0.466625    0.610829     0.007504
AU2977   AU        0.128169    0.510127    0.587660     0.007504
AU2978   AU        0.152442    0.468610    0.574209     0.007504
AU2979   AU        0.152196    0.499639    0.633987     0.007504
AU2980   AU        0.181627    0.475561    0.606708     0.007504
NI2981   NI        0.206568    0.508053    0.572228     0.004307
NI2982   NI        0.225259    0.457125    0.602228     0.004307
NI2983   NI        0.235177    0.499700    0.607355     0.004307
NI2984   NI        0.264779    0.459657    0.619923     0.004307
NI2985   NI        0.277013    0.500340    0.609802     0.004307
AU2986   AU        0.275488    0.469853    0.573431     0.007504
NI2987   NI        0.314905    0.486398    0.610966     0.004307
NI2988   NI        0.331793    0.446573    0.604871     0.004307
NI2989   NI        0.305033    0.518058    0.562691     0.004307
NI2990   NI        0.367305    0.461182    0.569215     0.004307
AU2991   AU        0.354381    0.494190    0.603699     0.007504
AU2992   AU        0.397754    0.484533    0.606542     0.007504
AU2993   AU        0.389613    0.496287    0.560876     0.007504
AU2994   AU        0.437536    0.486779    0.570157     0.007504
NI2995   NI        0.458640    0.501845    0.614256     0.004307
NI2996   NI        0.483760    0.467059    0.633517     0.004307
AU2997   AU        0.466734    0.528797    0.575663     0.007504
NI2998   NI        0.511707    0.456354    0.605942     0.004307
NI2999   NI        0.486450    0.486911    0.670608     0.004307
AU3000   AU        0.559572    0.463602    0.602279     0.007504
NI3001   NI        0.550417    0.524256    0.596163     0.004307
AU3002   AU        0.599546    0.485419    0.565836     0.007504
NI3003   NI        0.576381    0.501168    0.631631     0.004307
NI3004   NI        0.606108    0.467017    0.619282     0.004307
NI3005   NI        0.632786    0.518198    0.588985     0.004307
NI3006   NI        0.641978    0.472955    0.592937     0.004307
NI3007   NI        0.658712    0.512814    0.626254     0.004307
NI3008   NI        0.682810    0.471251    0.614426     0.004307
NI3009   NI        0.714603    0.471332    0.582795     0.004307
NI3010   NI        0.731334    0.440936    0.557216     0.004307
NI3011   NI        0.711774    0.504873    0.609682     0.004307
AU3012   AU        0.758226    0.465740    0.613968     0.007504
AU3013   AU        0.754400    0.497688    0.579355     0.007504
AU3014   AU        0.801723    0.468073    0.590719     0.007504
NI3015   NI        0.796558    0.487473    0.645775     0.004307
NI3016   NI        0.828550    0.505545    0.616439     0.004307
NI3017   NI        0.851595    0.518331    0.562439     0.004307
NI3018   NI        0.064566    0.536605    0.664708     0.004307
NI3019   NI        0.050231    0.551581    0.582753     0.004307
AU3020   AU        0.109004    0.552594    0.585668     0.007504
NI3021   NI        0.057561    0.569942    0.625440     0.004307
AU3022   AU        0.136672    0.543743    0.621781     0.007504
NI3023   NI        0.133518    0.584251    0.607459     0.004307
NI3024   NI        0.171564    0.527738    0.595412     0.004307
NI3025   NI        0.175947    0.565202    0.610573     0.004307
NI3026   NI        0.206391    0.535841    0.617934     0.004307
NI3027   NI        0.205857    0.576397    0.585455     0.004307
NI3028   NI        0.242820    0.542422    0.582028     0.004307
NI3029   NI        0.235686    0.577711    0.624401     0.004307
NI3030   NI        0.256377    0.540652    0.626865     0.004307
NI3031   NI        0.265527    0.578878    0.592563     0.004307
NI3032   NI        0.289120    0.546199    0.597338     0.004307
NI3033   NI        0.293208    0.581146    0.635752     0.004307
AU3034   AU        0.330699    0.529649    0.611466     0.007504
NI3035   NI        0.351425    0.573071    0.608330     0.004307
AU3036   AU        0.370013    0.534877    0.580952     0.007504
AU3037   AU        0.372069    0.531143    0.630901     0.007504
AU3038   AU        0.414975    0.522933    0.639131     0.007504
AU3039   AU        0.414846    0.569902    0.564509     0.007504
AU3040   AU        0.419108    0.526565    0.588603     0.007504
AU3041   AU        0.448098    0.546626    0.621671     0.007504
NI3042   NI        0.490991    0.526491    0.636812     0.004307
NI3043   NI        0.486871    0.571847    0.601892     0.004307
NI3044   NI        0.514060    0.546633    0.580920     0.004307
NI3045   NI        0.517009    0.563207    0.638343     0.004307
NI3046   NI        0.547800    0.535560    0.637064     0.004307
NI3047   NI        0.564034    0.563141    0.603548     0.004307
NI3048   NI        0.591003    0.523912    0.594434     0.004307
NI3049   NI        0.597297    0.588888    0.616680     0.004307
NI3050   NI        0.621703    0.537286    0.629515     0.004307
NI3051   NI        0.614144    0.587922    0.578561     0.004307
NI3052   NI        0.675891    0.512897    0.585682     0.004307
NI3053   NI        0.664947    0.553816    0.601843     0.004307
AU3054   AU        0.701494    0.543536    0.627380     0.007504
NI3055   NI        0.683905    0.555546    0.561863     0.004307
NI3056   NI        0.720446    0.538651    0.582108     0.004307
AU3057   AU        0.740654    0.574236    0.623846     0.007504
AU3058   AU        0.747955    0.530870    0.618896     0.007504
AU3059   AU        0.781921    0.565473    0.595570     0.007504
AU3060   AU        0.790090    0.521080    0.595429     0.007504
NI3061   NI        0.827975    0.586084    0.580444     0.004307
NI3062   NI        0.820262    0.554005    0.621836     0.004307
NI3063   NI        0.822088    0.624309    0.556831     0.004307
NI3064   NI        0.087417    0.591555    0.590990     0.004307
NI3065   NI        0.091527    0.636017    0.609520     0.004307
NI3066   NI        0.109829    0.607404    0.636521     0.004307
AU3067   AU        0.132069    0.626489    0.588768     0.007504
NI3068   NI        0.167261    0.602647    0.586975     0.004307
AU3069   AU        0.152713    0.634903    0.630814     0.007504
AU3070   AU        0.190346    0.616500    0.620199     0.007504
AU3071   AU        0.202574    0.642270    0.578953     0.007504
NI3072   NI        0.237099    0.614146    0.594458     0.004307
AU3073   AU        0.229085    0.653182    0.623319     0.007504
NI3074   NI        0.270164    0.612566    0.620033     0.004307
NI3075   NI        0.273841    0.625056    0.570111     0.004307
NI3076   NI        0.305328    0.591080    0.594933     0.004307
NI3077   NI        0.307091    0.643735    0.621297     0.004307
NI3078   NI        0.338932    0.614547    0.616357     0.004307
NI3079   NI        0.328568    0.624855    0.571795     0.004307
NI3080   NI        0.375602    0.609603    0.581018     0.004307
NI3081   NI        0.382807    0.623382    0.623293     0.004307
AU3082   AU        0.399254    0.565099    0.615668     0.007504
NI3083   NI        0.416974    0.630385    0.593405     0.004307
AU3084   AU        0.442090    0.593942    0.607229     0.007504
NI3085   NI        0.459353    0.642978    0.613232     0.004307
NI3086   NI        0.481474    0.599651    0.633153     0.004307
NI3087   NI        0.479019    0.626371    0.573743     0.004307
NI3088   NI        0.521590    0.593497    0.604770     0.004307
NI3089   NI        0.512846    0.639358    0.607109     0.004307
NI3090   NI        0.558194    0.600294    0.627747     0.004307
NI3091   NI        0.532058    0.640675    0.564599     0.004307
NI3092   NI        0.567226    0.630867    0.587161     0.004307
NI3093   NI        0.611639    0.637190    0.612737     0.004307
NI3094   NI        0.635272    0.605132    0.624275     0.004307
AU3095   AU        0.641348    0.638885    0.576678     0.007504
AU3096   AU        0.665258    0.593138    0.583960     0.007504
AU3097   AU        0.670747    0.630573    0.618820     0.007504
AU3098   AU        0.694725    0.589127    0.625955     0.007504
AU3099   AU        0.690134    0.632906    0.569291     0.007504
AU3100   AU        0.716090    0.590803    0.582341     0.007504
AU3101   AU        0.713652    0.633637    0.613381     0.007504
NI3102   NI        0.773637    0.611484    0.623592     0.004307
AU3103   AU        0.750473    0.623753    0.580486     0.007504
NI3104   NI        0.790197    0.606277    0.579439     0.004307
NI3105   NI        0.815503    0.623556    0.618882     0.004307
NI3106   NI        0.114535    0.671302    0.595613     0.004307
NI3107   NI        0.083047    0.684860    0.569857     0.004307
AU3108   AU        0.162824    0.663917    0.585878     0.007504
NI3109   NI        0.155345    0.699998    0.605511     0.004307
AU3110   AU        0.187606    0.666127    0.626495     0.007504
AU3111   AU        0.199900    0.694425    0.585233     0.007504
AU3112   AU        0.240693    0.666310    0.578994     0.007504
AU3113   AU        0.232346    0.703238    0.616952     0.007504
AU3114   AU        0.273854    0.675528    0.617117     0.007504
AU3115   AU        0.261017    0.708768    0.570472     0.007504
NI3116   NI        0.298590    0.673225    0.579206     0.004307
AU3117   AU        0.314521    0.701679    0.610376     0.007504
NI3118   NI        0.343870    0.666958    0.623627     0.004307
NI3119   NI        0.344157    0.702815    0.567780     0.004307
NI3120   NI        0.368178    0.651184    0.569281     0.004307
NI3121   NI        0.384348    0.677769    0.607678     0.004307
NI3122   NI        0.430328    0.675880    0.622518     0.004307
AU3123   AU        0.408134    0.720308    0.601090     0.007504
NI3124   NI        0.459892    0.671971    0.572012     0.004307
AU3125   AU        0.449062    0.721140    0.625880     0.007504
NI3126   NI        0.477045    0.683522    0.620739     0.004307
NI3127   NI        0.477221    0.716151    0.590407     0.004307
NI3128   NI        0.513705    0.684664    0.579056     0.004307
AU3129   AU        0.509648    0.713571    0.621917     0.007504
AU3130   AU        0.545885    0.676732    0.620786     0.007504
AU3131   AU        0.552221    0.716579    0.592982     0.007504
NI3132   NI        0.604453    0.672445    0.588768     0.004307
AU3133   AU        0.594496    0.703415    0.615420     0.007504
AU3134   AU        0.637163    0.671172    0.616493     0.007504
AU3135   AU        0.630936    0.711913    0.594428     0.007504
AU3136   AU        0.680361    0.671401    0.591793     0.007504
AU3137   AU        0.671416    0.706948    0.615308     0.007504
AU3138   AU        0.711084    0.681010    0.628756     0.007504
AU3139   AU        0.709045    0.715029    0.591786     0.007504
AU3140   AU        0.727896    0.669607    0.577832     0.007504
NI3141   NI        0.728674    0.705659    0.660278     0.004307
NI3142   NI        0.752408    0.648172    0.626243     0.004307
NI3143   NI        0.758901    0.696729    0.624030     0.004307
NI3144   NI        0.160015    0.749325    0.614473     0.004307
AU3145   AU        0.204526    0.746339    0.594871     0.007504
NI3146   NI        0.173948    0.773119    0.553881     0.004307
AU3147   AU        0.235175    0.748450    0.554680     0.007504
NI3148   NI        0.289572    0.812733    0.639058     0.004307
AU3149   AU        0.281969    0.739868    0.603072     0.007504
AU3150   AU        0.288858    0.784870    0.595356     0.007504
AU3151   AU        0.325449    0.748649    0.591961     0.007504
AU3152   AU        0.321510    0.781416    0.631113     0.007504
AU3153   AU        0.363494    0.742792    0.622003     0.007504
NI3154   NI        0.321204    0.821495    0.599709     0.004307
NI3155   NI        0.375674    0.729765    0.561349     0.004307
AU3156   AU        0.370827    0.788729    0.637113     0.007504
AU3157   AU        0.406911    0.759791    0.621910     0.007504
AU3158   AU        0.398103    0.766737    0.574510     0.007504
AU3159   AU        0.443704    0.754220    0.589928     0.007504
AU3160   AU        0.444815    0.778888    0.633688     0.007504
AU3161   AU        0.483279    0.757560    0.621388     0.007504
AU3162   AU        0.481826    0.786995    0.581010     0.007504
AU3163   AU        0.518784    0.753345    0.586285     0.007504
AU3164   AU        0.515159    0.793850    0.618975     0.007504
AU3165   AU        0.545141    0.753533    0.627674     0.007504
AU3166   AU        0.552604    0.787901    0.589220     0.007504
AU3167   AU        0.588013    0.752971    0.598650     0.007504
NI3168   NI        0.586686    0.779659    0.649463     0.004307
AU3169   AU        0.639489    0.743928    0.632811     0.007504
NI3170   NI        0.646483    0.784230    0.577335     0.004307
AU3171   AU        0.668747    0.747818    0.596483     0.007504
NI3172   NI        0.673515    0.779053    0.624310     0.004307
NI3173   NI        0.701938    0.742295    0.634214     0.004307
NI3174   NI        0.699724    0.784941    0.590136     0.004307
NI3175   NI        0.748233    0.735129    0.585989     0.004307
NI3176   NI        0.249966    0.769957    0.589807     0.004307
NI3177   NI        0.288746    0.824667    0.568593     0.004307
NI3178   NI        0.333955    0.822599    0.641681     0.004307
NI3179   NI        0.361871    0.840937    0.601170     0.004307
AU3180   AU        0.363574    0.807587    0.574686     0.007504
NI3181   NI        0.408599    0.839993    0.589300     0.004307
NI3182   NI        0.400326    0.819954    0.626374     0.004307
NI3183   NI        0.451047    0.845290    0.591659     0.004307
AU3184   AU        0.430283    0.801382    0.591789     0.007504
NI3185   NI        0.427431    0.860214    0.630876     0.004307
AU3186   AU        0.472885    0.818572    0.616643     0.007504
NI3187   NI        0.476282    0.859381    0.558933     0.004307
AU3188   AU        0.514830    0.823958    0.579484     0.007504
NI3189   NI        0.471169    0.864406    0.628903     0.004307
NI3190   NI        0.562113    0.816135    0.627892     0.004307
NI3191   NI        0.614561    0.865651    0.568730     0.004307
NI3192   NI        0.588698    0.819118    0.595154     0.004307
NI3193   NI        0.623498    0.831259    0.619018     0.004307
NI3194   NI        0.265688    0.164334    0.662764     0.004307
NI3195   NI        0.330487    0.104039    0.648028     0.004307
AU3196   AU        0.340057    0.145302    0.664198     0.007504
NI3197   NI        0.374944    0.068875    0.648991     0.004307
NI3198   NI        0.374094    0.141474    0.693798     0.004307
NI3199   NI        0.409068    0.088153    0.686350     0.004307
NI3200   NI        0.395795    0.132656    0.659831     0.004307
NI3201   NI        0.452379    0.096137    0.666724     0.004307
AU3202   AU        0.435394    0.141760    0.684102     0.007504
NI3203   NI        0.470376    0.108585    0.702888     0.004307
AU3204   AU        0.481427    0.140931    0.662068     0.007504
NI3205   NI        0.528724    0.120154    0.668434     0.004307
NI3206   NI        0.508980    0.130829    0.705430     0.004307
AU3207   AU        0.566829    0.152573    0.667948     0.007504
NI3208   NI        0.589967    0.174233    0.698039     0.004307
NI3209   NI        0.621553    0.150119    0.666951     0.004307
NI3210   NI        0.227053    0.217204    0.671607     0.004307
NI3211   NI        0.230012    0.176294    0.637513     0.004307
NI3212   NI        0.186572    0.194014    0.661037     0.004307
NI3213   NI        0.277090    0.157391    0.709878     0.004307
AU3214   AU        0.271536    0.219966    0.654699     0.007504
AU3215   AU        0.306033    0.184077    0.656576     0.007504
AU3216   AU        0.296407    0.217983    0.692639     0.007504
AU3217   AU        0.333227    0.181342    0.698328     0.007504
AU3218   AU        0.337057    0.215405    0.657535     0.007504
AU3219   AU        0.370824    0.181884    0.663942     0.007504
AU3220   AU        0.366513    0.210261    0.699738     0.007504
AU3221   AU        0.408890    0.182949    0.690663     0.007504
AU3222   AU        0.411796    0.212830    0.652514     0.007504
AU3223   AU        0.443526    0.177082    0.652959     0.007504
AU3224   AU        0.448240    0.212466    0.686869     0.007504
AU3225   AU        0.480696    0.175169    0.688901     0.007504
AU3226   AU        0.485681    0.212186    0.662173     0.007504
AU3227   AU        0.523238    0.176015    0.665481     0.007504
AU3228   AU        0.521905    0.206322    0.700409     0.007504
NI3229   NI        0.542115    0.156239    0.699983     0.004307
AU3230   AU        0.560333    0.202383    0.671883     0.007504
AU3231   AU        0.598996    0.189070    0.654885     0.007504
AU3232   AU        0.604304    0.217920    0.693542     0.007504
NI3233   NI        0.669759    0.190609    0.711874     0.004307
AU3234   AU        0.634767    0.215323    0.656019     0.007504
NI3235   NI        0.670711    0.178871    0.650587     0.004307
NI3236   NI        0.636371    0.187521    0.689440     0.004307
NI3237   NI        0.673279    0.222923    0.687596     0.004307
NI3238   NI        0.111632    0.280026    0.626354     0.004307
NI3239   NI        0.148249    0.241839    0.629652     0.004307
NI3240   NI        0.140817    0.279880    0.690611     0.004307
NI3241   NI        0.193381    0.234360    0.691265     0.004307
AU3242   AU        0.180495    0.273558    0.659000     0.007504
AU3243   AU        0.232382    0.255795    0.648063     0.007504
AU3244   AU        0.216986    0.272444    0.695003     0.007504
AU3245   AU        0.262990    0.256548    0.684375     0.007504
AU3246   AU        0.267498    0.294024    0.643964     0.007504
AU3247   AU        0.303106    0.253592    0.653819     0.007504
AU3248   AU        0.298689    0.276391    0.700438     0.007504
AU3249   AU        0.332822    0.241288    0.698299     0.007504
AU3250   AU        0.333424    0.281352    0.665390     0.007504
AU3251   AU        0.370161    0.243137    0.660946     0.007504
AU3252   AU        0.370124    0.273476    0.699252     0.007504
AU3253   AU        0.405230    0.238365    0.697252     0.007504
NI3254   NI        0.408528    0.273487    0.664073     0.004307
NI3255   NI        0.453857    0.249044    0.651729     0.004307
NI3256   NI        0.458514    0.282925    0.686837     0.004307
NI3257   NI        0.485866    0.248755    0.688757     0.004307
NI3258   NI        0.488780    0.276450    0.644193     0.004307
AU3259   AU        0.523073    0.238662    0.663284     0.007504
AU3260   AU        0.528102    0.281085    0.688668     0.007504
AU3261   AU        0.560317    0.243212    0.694513     0.007504
AU3262   AU        0.565152    0.274124    0.656297     0.007504
AU3263   AU        0.594854    0.241513    0.656496     0.007504
AU3264   AU        0.595257    0.280936    0.694394     0.007504
AU3265   AU        0.633683    0.251938    0.690309     0.007504
AU3266   AU        0.624445    0.280162    0.651951     0.007504
AU3267   AU        0.662389    0.252168    0.654658     0.007504
AU3268   AU        0.677194    0.271198    0.702217     0.007504
NI3269   NI        0.712695    0.227792    0.714246     0.004307
AU3270   AU        0.696140    0.286332    0.655268     0.007504
NI3271   NI        0.708295    0.242442    0.671389     0.004307
NI3272   NI        0.727655    0.278712    0.696247     0.004307
NI3273   NI        0.742677    0.274843    0.657613     0.004307
NI3274   NI        0.098537    0.318379    0.636391     0.004307
AU3275   AU        0.131113    0.354669    0.639575     0.007504
AU3276   AU        0.143147    0.309498    0.656760     0.007504
NI3277   NI        0.142504    0.352734    0.700967     0.004307
AU3278   AU        0.181951    0.309146    0.694615     0.007504
AU3279   AU        0.177080    0.343182    0.666120     0.007504
AU3280   AU        0.216582    0.307010    0.662054     0.007504
AU3281   AU        0.218572    0.346885    0.692345     0.007504
AU3282   AU        0.257133    0.309284    0.693021     0.007504
NI3283   NI        0.254736    0.341211    0.656982     0.004307
AU3284   AU        0.298542    0.315492    0.667528     0.007504
NI3285   NI        0.286742    0.347936    0.691242     0.004307
AU3286   AU        0.335974    0.307642    0.698936     0.007504
NI3287   NI        0.337880    0.333513    0.654827     0.004307
AU3288   AU        0.371272    0.307989    0.661924     0.007504
AU3289   AU        0.373508    0.340311    0.696806     0.007504
AU3290   AU        0.406200    0.302530    0.698835     0.007504
NI3291   NI        0.411020    0.367549    0.625482     0.004307
NI3292   NI        0.434964    0.310981    0.658929     0.004307
AU3293   AU        0.443356    0.338757    0.704037     0.007504
NI3294   NI        0.484855    0.320377    0.681160     0.004307
NI3295   NI        0.504880    0.358838    0.656089     0.004307
AU3296   AU        0.531193    0.311441    0.651978     0.007504
AU3297   AU        0.530176    0.340780    0.692319     0.007504
AU3298   AU        0.566097    0.312339    0.695097     0.007504
AU3299   AU        0.566113    0.346451    0.653621     0.007504
AU3300   AU        0.596557    0.312567    0.656992     0.007504
AU3301   AU        0.602740    0.343332    0.694661     0.007504
AU3302   AU        0.637835    0.304656    0.698902     0.007504
AU3303   AU        0.633355    0.347489    0.656083     0.007504
AU3304   AU        0.660192    0.312932    0.656191     0.007504
AU3305   AU        0.665233    0.348371    0.695012     0.007504
AU3306   AU        0.697792    0.319446    0.691657     0.007504
AU3307   AU        0.686026    0.355491    0.648719     0.007504
AU3308   AU        0.726994    0.321924    0.651511     0.007504
AU3309   AU        0.718598    0.359458    0.679175     0.007504
NI3310   NI        0.777031    0.307676    0.660737     0.004307
AU3311   AU        0.761015    0.360211    0.648183     0.007504
NI3312   NI        0.092976    0.387215    0.643808     0.004307
NI3313   NI        0.081209    0.461748    0.692907     0.004307
NI3314   NI        0.124704    0.414153    0.688373     0.004307
AU3315   AU        0.126875    0.426263    0.643629     0.007504
AU3316   AU        0.151985    0.386959    0.664082     0.007504
AU3317   AU        0.177681    0.423452    0.679948     0.007504
AU3318   AU        0.186346    0.383152    0.705928     0.007504
AU3319   AU        0.197780    0.438364    0.640444     0.007504
AU3320   AU        0.200918    0.380899    0.661275     0.007504
AU3321   AU        0.222435    0.416516    0.680432     0.007504
NI3322   NI        0.253827    0.383223    0.665582     0.004307
NI3323   NI        0.245698    0.420324    0.635311     0.004307
NI3324   NI        0.302918    0.371598    0.641587     0.004307
NI3325   NI        0.294276    0.416865    0.658357     0.004307
NI3326   NI        0.334068    0.364884    0.682818     0.004307
NI3327   NI        0.339367    0.403722    0.668582     0.004307
NI3328   NI        0.377000    0.380833    0.664933     0.004307
NI3329   NI        0.372324    0.426082    0.687598     0.004307
AU3330   AU        0.407804    0.376619    0.712938     0.007504
NI3331   NI        0.412688    0.432125    0.647974     0.004307
NI3332   NI        0.443196    0.375638    0.664785     0.004307
NI3333   NI        0.421999    0.416165    0.686051     0.004307
NI3334   NI        0.478033    0.373237    0.694241     0.004307
NI3335   NI        0.452082    0.413751    0.640481     0.004307
NI3336   NI        0.528393    0.389545    0.673938     0.004307
NI3337   NI        0.546386    0.438714    0.686324     0.004307
AU3338   AU        0.567617    0.377726    0.690704     0.007504
AU3339   AU        0.569542    0.410817    0.655182     0.007504
AU3340   AU        0.602547    0.379638    0.654693     0.007504
AU3341   AU        0.600160    0.414736    0.693262     0.007504
AU3342   AU        0.635594    0.381560    0.693810     0.007504
AU3343   AU        0.617895    0.429399    0.645947     0.007504
AU3344   AU        0.655031    0.392209    0.646177     0.007504
AU3345   AU        0.651018    0.427400    0.681761     0.007504
AU3346   AU        0.685569    0.394269    0.684203     0.007504
AU3347   AU        0.685882    0.431014    0.647061     0.007504
AU3348   AU        0.722282    0.394105    0.646860     0.007504
AU3349   AU        0.727637    0.419190    0.688775     0.007504
NI3350   NI        0.758517    0.380020    0.694098     0.004307
AU3351   AU        0.768892    0.410557    0.654755     0.007504
NI3352   NI        0.804831    0.378620    0.636150     0.004307
NI3353   NI        0.807126    0.422066    0.669853     0.004307
NI3354   NI        0.042203    0.441717    0.603922     0.004307
NI3355   NI        0.074850    0.473524    0.645218     0.004307
AU3356   AU        0.141796    0.453918    0.696067     0.007504
AU3357   AU        0.119434    0.473874    0.660228     0.007504
AU3358   AU        0.161003    0.459175    0.649645     0.007504
AU3359   AU        0.161872    0.498011    0.681412     0.007504
AU3360   AU        0.195312    0.462685    0.684867     0.007504
AU3361   AU        0.199884    0.497168    0.646687     0.007504
NI3362   NI        0.233898    0.458122    0.655996     0.004307
AU3363   AU        0.231655    0.493402    0.686680     0.007504
NI3364   NI        0.272207    0.450122    0.669227     0.004307
NI3365   NI        0.252321    0.497753    0.646404     0.004307
NI3366   NI        0.307201    0.453996    0.642750     0.004307
NI3367   NI        0.297506    0.489041    0.670710     0.004307
NI3368   NI        0.337491    0.465528    0.677000     0.004307
AU3369   AU        0.343381    0.506262    0.652022     0.007504
NI3370   NI        0.367515    0.459591    0.640852     0.004307
NI3371   NI        0.393924    0.471070    0.679750     0.004307
NI3372   NI        0.449302    0.452736    0.673797     0.004307
NI3373   NI        0.418299    0.474913    0.644124     0.004307
NI3374   NI        0.444550    0.462885    0.611583     0.004307
NI3375   NI        0.426936    0.500496    0.686317     0.004307
NI3376   NI        0.495839    0.431021    0.664459     0.004307
NI3377   NI        0.451458    0.500638    0.654199     0.004307
NI3378   NI        0.542194    0.431842    0.630220     0.004307
NI3379   NI        0.524296    0.472781    0.700245     0.004307
NI3380   NI        0.520564    0.466093    0.660472     0.004307
NI3381   NI        0.529095    0.495284    0.630111     0.004307
NI3382   NI        0.572700    0.462746    0.655415     0.004307
NI3383   NI        0.574156    0.483116    0.694935     0.004307
AU3384   AU        0.619390    0.463450    0.681609     0.007504
NI3385   NI        0.614072    0.500827    0.652697     0.004307
AU3386   AU        0.650173    0.468270    0.643346     0.007504
AU3387   AU        0.659837    0.497806    0.683106     0.007504
AU3388   AU        0.692534    0.454820    0.688801     0.007504
AU3389   AU        0.699411    0.481716    0.655689     0.007504
AU3390   AU        0.727821    0.443325    0.649338     0.007504
AU3391   AU        0.730462    0.495173    0.694012     0.007504
NI3392   NI        0.765899    0.459895    0.676384     0.004307
AU3393   AU        0.745647    0.491224    0.651006     0.007504
NI3394   NI        0.824327    0.455325    0.641650     0.004307
NI3395   NI        0.775268    0.503251    0.682564     0.004307
NI3396   NI        0.097954    0.558354    0.630122     0.004307
NI3397   NI        0.096153    0.530525    0.701803     0.004307
NI3398   NI        0.132981    0.593515    0.716224     0.004307
AU3399   AU        0.172883    0.538536    0.654149     0.007504
AU3400   AU        0.138191    0.546640    0.688997     0.007504
AU3401   AU        0.187946    0.540900    0.696082     0.007504
AU3402   AU        0.196910    0.575352    0.651144     0.007504
AU3403   AU        0.223103    0.533805    0.666583     0.007504
AU3404   AU        0.222567    0.581610    0.692254     0.007504
AU3405   AU        0.271009    0.525592    0.694022     0.007504
NI3406   NI        0.256976    0.558690    0.667392     0.004307
AU3407   AU        0.296653    0.532754    0.646380     0.007504
AU3408   AU        0.301538    0.565689    0.683715     0.007504
NI3409   NI        0.321635    0.529812    0.688902     0.004307
AU3410   AU        0.337625    0.562087    0.651463     0.007504
NI3411   NI        0.383724    0.514616    0.671749     0.004307
NI3412   NI        0.364381    0.562921    0.695684     0.004307
NI3413   NI        0.398733    0.537211    0.704072     0.004307
NI3414   NI        0.397664    0.556717    0.665929     0.004307
NI3415   NI        0.437966    0.542798    0.670957     0.004307
NI3416   NI        0.458520    0.568537    0.698213     0.004307
NI3417   NI        0.477061    0.527000    0.684520     0.004307
NI3418   NI        0.477241    0.562299    0.659183     0.004307
NI3419   NI        0.523977    0.513892    0.677299     0.004307
NI3420   NI        0.511421    0.560269    0.695276     0.004307
NI3421   NI        0.550573    0.555231    0.678912     0.004307
NI3422   NI        0.577149    0.566656    0.644055     0.004307
NI3423   NI        0.586155    0.528064    0.665307     0.004307
AU3424   AU        0.590661    0.572564    0.684064     0.007504
AU3425   AU        0.631161    0.539934    0.685068     0.007504
NI3426   NI        0.632658    0.577966    0.655297     0.004307
NI3427   NI        0.665595    0.545951    0.659092     0.004307
AU3428   AU        0.668147    0.571241    0.700519     0.007504
AU3429   AU        0.698571    0.531938    0.692512     0.007504
AU3430   AU        0.707968    0.570531    0.670599     0.007504
AU3431   AU        0.739245    0.537709    0.666460     0.007504
NI3432   NI        0.744217    0.584307    0.708781     0.004307
NI3433   NI        0.742726    0.537414    0.722640     0.004307
NI3434   NI        0.786335    0.531245    0.645597     0.004307
NI3435   NI        0.772664    0.547432    0.688768     0.004307
NI3436   NI        0.101165    0.575973    0.674939     0.004307
NI3437   NI        0.119898    0.661867    0.635188     0.004307
AU3438   AU        0.148792    0.586053    0.654042     0.007504
NI3439   NI        0.155562    0.647100    0.684611     0.004307
NI3440   NI        0.171549    0.583533    0.699009     0.004307
AU3441   AU        0.185630    0.613906    0.669385     0.007504
AU3442   AU        0.229814    0.610205    0.652185     0.007504
AU3443   AU        0.226840    0.633005    0.695701     0.007504
AU3444   AU        0.267145    0.603856    0.688247     0.007504
AU3445   AU        0.269302    0.644868    0.654401     0.007504
NI3446   NI        0.309725    0.615958    0.652087     0.004307
AU3447   AU        0.303586    0.638891    0.688130     0.007504
AU3448   AU        0.340310    0.600732    0.688864     0.007504
AU3449   AU        0.344356    0.641915    0.658771     0.007504
NI3450   NI        0.375657    0.591106    0.650135     0.004307
AU3451   AU        0.370976    0.643416    0.697101     0.007504
NI3452   NI        0.411720    0.615839    0.683342     0.004307
NI3453   NI        0.425300    0.638906    0.649404     0.004307
NI3454   NI        0.443617    0.587400    0.656181     0.004307
AU3455   AU        0.449670    0.642583    0.692357     0.007504
NI3456   NI        0.473711    0.606265    0.693480     0.004307
NI3457   NI        0.480059    0.639520    0.651748     0.004307
NI3458   NI        0.515377    0.596276    0.668876     0.004307
AU3459   AU        0.513328    0.638904    0.692356     0.007504
AU3460   AU        0.554191    0.605923    0.689651     0.007504
AU3461   AU        0.540326    0.637576    0.651717     0.007504
AU3462   AU        0.594948    0.613171    0.660538     0.007504
NI3463   NI        0.578530    0.643833    0.687663     0.004307
AU3464   AU        0.630982    0.607719    0.694031     0.007504
AU3465   AU        0.637167    0.642916    0.655226     0.007504
AU3466   AU        0.668234    0.604970    0.663751     0.007504
AU3467   AU        0.666906    0.645481    0.692346     0.007504
AU3468   AU        0.704875    0.610867    0.699338     0.007504
AU3469   AU        0.696503    0.642975    0.659797     0.007504
AU3470   AU        0.732837    0.612084    0.654989     0.007504
NI3471   NI        0.716522    0.654389    0.699182     0.004307
NI3472   NI        0.776235    0.580610    0.660779     0.004307
NI3473   NI        0.783024    0.635372    0.657945     0.004307
NI3474   NI        0.163579    0.685138    0.662830     0.004307
NI3475   NI        0.200461    0.662246    0.677695     0.004307
NI3476   NI        0.190284    0.713465    0.633975     0.004307
AU3477   AU        0.241933    0.684720    0.662955     0.007504
NI3478   NI        0.206177    0.707784    0.671904     0.004307
NI3479   NI        0.241446    0.680064    0.706783     0.004307
AU3480   AU        0.276260    0.714194    0.639335     0.007504
AU3481   AU        0.307717    0.675774    0.655743     0.007504
AU3482   AU        0.303492    0.715840    0.685609     0.007504
AU3483   AU        0.333618    0.674896    0.696451     0.007504
NI3484   NI        0.350917    0.702358    0.650703     0.004307
AU3485   AU        0.385443    0.666631    0.652091     0.007504
AU3486   AU        0.373389    0.706303    0.689444     0.007504
AU3487   AU        0.411383    0.672614    0.689294     0.007504
AU3488   AU        0.403488    0.709350    0.650350     0.007504
AU3489   AU        0.451831    0.682235    0.660809     0.007504
AU3490   AU        0.446397    0.737642    0.711417     0.007504
AU3491   AU        0.483778    0.680983    0.699775     0.007504
AU3492   AU        0.476082    0.724186    0.673484     0.007504
AU3493   AU        0.506523    0.679997    0.656107     0.007504
AU3494   AU        0.519093    0.716500    0.700105     0.007504
AU3495   AU        0.545836    0.675239    0.691816     0.007504
AU3496   AU        0.544991    0.712039    0.656612     0.007504
NI3497   NI        0.586781    0.662012    0.642351     0.004307
AU3498   AU        0.574108    0.721926    0.693944     0.007504
NI3499   NI        0.599058    0.679787    0.707528     0.004307
AU3500   AU        0.622277    0.697562    0.655221     0.007504
AU3501   AU        0.667224    0.681615    0.656790     0.007504
NI3502   NI        0.650458    0.730103    0.718297     0.004307
NI3503   NI        0.688628    0.691342    0.703042     0.004307
NI3504   NI        0.678057    0.721518    0.665961     0.004307
NI3505   NI        0.744725    0.662790    0.667478     0.004307
NI3506   NI        0.230546    0.740978    0.642953     0.004307
NI3507   NI        0.254902    0.726191    0.682309     0.004307
AU3508   AU        0.278558    0.760329    0.645400     0.007504
AU3509   AU        0.321581    0.738065    0.643729     0.007504
NI3510   NI        0.296178    0.761437    0.693327     0.004307
AU3511   AU        0.340756    0.749234    0.695620     0.007504
NI3512   NI        0.340756    0.790783    0.668109     0.004307
AU3513   AU        0.381462    0.752582    0.668576     0.007504
NI3514   NI        0.376894    0.784949    0.700743     0.004307
AU3515   AU        0.416114    0.768986    0.706177     0.007504
AU3516   AU        0.411437    0.789331    0.661890     0.007504
AU3517   AU        0.428775    0.741519    0.666238     0.007504
AU3518   AU        0.456632    0.774908    0.680419     0.007504
AU3519   AU        0.491179    0.757037    0.711256     0.007504
AU3520   AU        0.488767    0.792079    0.657697     0.007504
AU3521   AU        0.509911    0.749690    0.661890     0.007504
NI3522   NI        0.512540    0.795578    0.692433     0.004307
AU3523   AU        0.542637    0.761362    0.704680     0.007504
AU3524   AU        0.542885    0.785505    0.662268     0.007504
AU3525   AU        0.589908    0.732781    0.648215     0.007504
NI3526   NI        0.587446    0.764040    0.686706     0.004307
NI3527   NI        0.627819    0.736749    0.678411     0.004307
NI3528   NI        0.619635    0.781513    0.609262     0.004307
NI3529   NI        0.710198    0.726806    0.696394     0.004307
NI3530   NI        0.377837    0.821363    0.667423     0.004307
NI3531   NI        0.416562    0.815388    0.697029     0.004307
NI3532   NI        0.438712    0.824439    0.649098     0.004307
NI3533   NI        0.467187    0.822241    0.691316     0.004307
NI3534   NI        0.515627    0.831279    0.652995     0.004307
NI3535   NI        0.406630    0.141115    0.721349     0.004307
NI3536   NI        0.452141    0.166192    0.775402     0.004307
NI3537   NI        0.258362    0.205350    0.720253     0.004307
NI3538   NI        0.296547    0.185088    0.735221     0.004307
NI3539   NI        0.289582    0.217688    0.780100     0.004307
AU3540   AU        0.333190    0.210128    0.737364     0.007504
NI3541   NI        0.375576    0.178737    0.728090     0.004307
NI3542   NI        0.365976    0.203778    0.772189     0.004307
NI3543   NI        0.407694    0.192386    0.779560     0.004307
AU3544   AU        0.408534    0.206753    0.731360     0.007504
AU3545   AU        0.446457    0.177447    0.719545     0.007504
AU3546   AU        0.448370    0.211894    0.757934     0.007504
NI3547   NI        0.485374    0.199931    0.782700     0.004307
AU3548   AU        0.483483    0.212603    0.725501     0.007504
NI3549   NI        0.507339    0.172599    0.734913     0.004307
NI3550   NI        0.521966    0.207385    0.751546     0.004307
AU3551   AU        0.567216    0.200711    0.725489     0.007504
NI3552   NI        0.578660    0.159366    0.749366     0.004307
NI3553   NI        0.622846    0.231185    0.764311     0.004307
NI3554   NI        0.616525    0.194590    0.729071     0.004307
NI3555   NI        0.212445    0.268667    0.740242     0.004307
NI3556   NI        0.227704    0.235712    0.715790     0.004307
NI3557   NI        0.225200    0.292266    0.772005     0.004307
NI3558   NI        0.255826    0.247090    0.765709     0.004307
AU3559   AU        0.257397    0.277021    0.729573     0.007504
AU3560   AU        0.294033    0.239896    0.734193     0.007504
AU3561   AU        0.291939    0.277233    0.767811     0.007504
AU3562   AU        0.331755    0.243478    0.772894     0.007504
AU3563   AU        0.330631    0.274449    0.737018     0.007504
AU3564   AU        0.368737    0.242583    0.736162     0.007504
AU3565   AU        0.369770    0.274471    0.774991     0.007504
AU3566   AU        0.402418    0.237338    0.773794     0.007504
AU3567   AU        0.405652    0.272410    0.736053     0.007504
AU3568   AU        0.452331    0.251175    0.718674     0.007504
AU3569   AU        0.442898    0.263251    0.769605     0.007504
AU3570   AU        0.484838    0.244971    0.758627     0.007504
AU3571   AU        0.492076    0.283094    0.720266     0.007504
AU3572   AU        0.520243    0.243889    0.724461     0.007504
AU3573   AU        0.524836    0.272548    0.758814     0.007504
NI3574   NI        0.560053    0.233749    0.754750     0.004307
AU3575   AU        0.560616    0.277282    0.729781     0.007504
AU3576   AU        0.596611    0.243216    0.727665     0.007504
AU3577   AU        0.597096    0.270731    0.768935     0.007504
NI3578   NI        0.585906    0.197623    0.774382     0.004307
AU3579   AU        0.635339    0.271952    0.730916     0.007504
NI3580   NI        0.659068    0.231966    0.724313     0.004307
NI3581   NI        0.682015    0.303534    0.783506     0.004307
NI3582   NI        0.695676    0.262718    0.744222     0.004307
NI3583   NI        0.145808    0.314772    0.726965     0.004307
NI3584   NI        0.213142    0.333669    0.759868     0.004307
NI3585   NI        0.185618    0.350313    0.732733     0.004307
AU3586   AU        0.221933    0.308775    0.721519     0.007504
NI3587   NI        0.226106    0.373032    0.759084     0.004307
AU3588   AU        0.260873    0.317043    0.760813     0.007504
AU3589   AU        0.258031    0.348180    0.726847     0.007504
AU3590   AU        0.295211    0.310582    0.728492     0.007504
AU3591   AU        0.296948    0.352310    0.759824     0.007504
AU3592   AU        0.328379    0.312035    0.765583     0.007504
AU3593   AU        0.334298    0.342688    0.728040     0.007504
AU3594   AU        0.369212    0.307519    0.737735     0.007504
AU3595   AU        0.374940    0.358877    0.747700     0.007504
AU3596   AU        0.405663    0.297953    0.773543     0.007504
AU3597   AU        0.409389    0.331399    0.735950     0.007504
AU3598   AU        0.444010    0.297640    0.732238     0.007504
AU3599   AU        0.451752    0.339842    0.757211     0.007504
AU3600   AU        0.483891    0.298133    0.765629     0.007504
AU3601   AU        0.486696    0.332006    0.727539     0.007504
AU3602   AU        0.527475    0.312772    0.731959     0.007504
AU3603   AU        0.530296    0.349381    0.766805     0.007504
AU3604   AU        0.564768    0.310196    0.767045     0.007504
AU3605   AU        0.566063    0.343125    0.730363     0.007504
AU3606   AU        0.600872    0.307782    0.732352     0.007504
AU3607   AU        0.602484    0.345453    0.769477     0.007504
AU3608   AU        0.633607    0.306448    0.769255     0.007504
AU3609   AU        0.637496    0.343959    0.734891     0.007504
AU3610   AU        0.670882    0.307320    0.734389     0.007504
NI3611   NI        0.669938    0.344793    0.770552     0.004307
NI3612   NI        0.717112    0.305851    0.739322     0.004307
NI3613   NI        0.701827    0.344121    0.731852     0.004307
NI3614   NI        0.749969    0.329266    0.691017     0.004307
NI3615   NI        0.113112    0.437757    0.724726     0.004307
NI3616   NI        0.156151    0.419288    0.721429     0.004307
NI3617   NI        0.144223    0.425585    0.760711     0.004307
NI3618   NI        0.174664    0.394922    0.753744     0.004307
AU3619   AU        0.201596    0.425481    0.723941     0.007504
AU3620   AU        0.234598    0.389139    0.711807     0.007504
AU3621   AU        0.218788    0.414340    0.769932     0.007504
AU3622   AU        0.264642    0.392403    0.750054     0.007504
AU3623   AU        0.239719    0.446437    0.709547     0.007504
NI3624   NI        0.299739    0.376749    0.724416     0.004307
AU3625   AU        0.304673    0.425129    0.748261     0.007504
AU3626   AU        0.334925    0.387495    0.751542     0.007504
NI3627   NI        0.332238    0.435220    0.705647     0.004307
NI3628   NI        0.363598    0.389838    0.712599     0.004307
NI3629   NI        0.368961    0.422392    0.752320     0.004307
NI3630   NI        0.412672    0.378977    0.759198     0.004307
NI3631   NI        0.406048    0.419850    0.728412     0.004307
AU3632   AU        0.449207    0.380072    0.734060     0.007504
AU3633   AU        0.435824    0.420730    0.761471     0.007504
AU3634   AU        0.489152    0.374496    0.757924     0.007504
NI3635   NI        0.491284    0.407968    0.717300     0.004307
AU3636   AU        0.527018    0.378618    0.724303     0.007504
AU3637   AU        0.527655    0.408642    0.761991     0.007504
AU3638   AU        0.566207    0.381179    0.767989     0.007504
AU3639   AU        0.564337    0.412318    0.727918     0.007504
AU3640   AU        0.600178    0.379458    0.730270     0.007504
AU3641   AU        0.601577    0.422499    0.779204     0.007504
AU3642   AU        0.635369    0.383328    0.766389     0.007504
AU3643   AU        0.633735    0.417776    0.729424     0.007504
AU3644   AU        0.672004    0.378358    0.733869     0.007504
NI3645   NI        0.658601    0.423447    0.763843     0.004307
NI3646   NI        0.708062    0.371537    0.771439     0.004307
AU3647   AU        0.684305    0.418934    0.724219     0.007504
NI3648   NI        0.717931    0.384133    0.721967     0.004307
NI3649   NI        0.715917    0.418615    0.761196     0.004307
NI3650   NI        0.806995    0.458739    0.690102     0.004307
NI3651   NI        0.121473    0.499151    0.700323     0.004307
NI3652   NI        0.155005    0.475047    0.730306     0.004307
NI3653   NI        0.147086    0.477486    0.799095     0.004307
NI3654   NI        0.186629    0.451410    0.777869     0.004307
AU3655   AU        0.198915    0.499914    0.721326     0.007504
AU3656   AU        0.222156    0.463599    0.755897     0.007504
AU3657   AU        0.227795    0.515962    0.761547     0.007504
AU3658   AU        0.270096    0.451144    0.748402     0.007504
AU3659   AU        0.251895    0.491314    0.727208     0.007504
NI3660   NI        0.301110    0.468855    0.719469     0.004307
AU3661   AU        0.291331    0.493612    0.761151     0.007504
AU3662   AU        0.342698    0.458172    0.747369     0.007504
NI3663   NI        0.328163    0.502192    0.728716     0.004307
NI3664   NI        0.368776    0.472905    0.715157     0.004307
AU3665   AU        0.381425    0.493978    0.762286     0.007504
NI3666   NI        0.409326    0.456956    0.750870     0.004307
NI3667   NI        0.424954    0.496070    0.732217     0.004307
NI3668   NI        0.450037    0.433807    0.716106     0.004307
AU3669   AU        0.467897    0.483268    0.756648     0.007504
AU3670   AU        0.483557    0.434501    0.751506     0.007504
NI3671   NI        0.495343    0.506975    0.730983     0.004307
NI3672   NI        0.486780    0.463163    0.719979     0.004307
AU3673   AU        0.519855    0.470607    0.759445     0.007504
AU3674   AU        0.558604    0.448482    0.760180     0.007504
NI3675   NI        0.551566    0.491854    0.728892     0.004307
AU3676   AU        0.594708    0.453961    0.724757     0.007504
AU3677   AU        0.586928    0.492147    0.756408     0.007504
AU3678   AU        0.627056    0.462788    0.759768     0.007504
AU3679   AU        0.624087    0.494527    0.719032     0.007504
AU3680   AU        0.656971    0.458872    0.719634     0.007504
AU3681   AU        0.659542    0.497761    0.753141     0.007504
NI3682   NI        0.685808    0.459160    0.761053     0.004307
AU3683   AU        0.696149    0.494089    0.724055     0.007504
AU3684   AU        0.719301    0.451523    0.725099     0.007504
NI3685   NI        0.726944    0.467898    0.770895     0.004307
NI3686   NI        0.765218    0.437274    0.717737     0.004307
NI3687   NI        0.158411    0.522273    0.727496     0.004307
NI3688   NI        0.183606    0.501045    0.765275     0.004307
NI3689   NI        0.200057    0.564802    0.732365     0.004307
AU3690   AU        0.232727    0.535611    0.715132     0.007504
AU3691   AU        0.242595    0.563553    0.763018     0.007504
AU3692   AU        0.272636    0.532805    0.747326     0.007504
AU3693   AU        0.266979    0.568063    0.719767     0.007504
AU3694   AU        0.305586    0.547123    0.724798     0.007504
AU3695   AU        0.293298    0.573828    0.763429     0.007504
AU3696   AU        0.311642    0.531263    0.775763     0.007504
NI3697   NI        0.338382    0.578440    0.735479     0.004307
NI3698   NI        0.361297    0.524928    0.719188     0.004307
AU3699   AU        0.371310    0.573132    0.785327     0.007504
NI3700   NI        0.406169    0.535482    0.750251     0.004307
NI3701   NI        0.436112    0.567316    0.747531     0.004307
NI3702   NI        0.456975    0.524151    0.721876     0.004307
AU3703   AU        0.447867    0.529837    0.772406     0.007504
AU3704   AU        0.502978    0.518600    0.774143     0.007504
NI3705   NI        0.487772    0.559578    0.730943     0.004307
NI3706   NI        0.534384    0.531764    0.718733     0.004307
AU3707   AU        0.526685    0.562575    0.763126     0.007504
AU3708   AU        0.566092    0.531142    0.756965     0.007504
AU3709   AU        0.555961    0.567771    0.723769     0.007504
AU3710   AU        0.588569    0.529924    0.712112     0.007504
AU3711   AU        0.595666    0.572974    0.753744     0.007504
AU3712   AU        0.618820    0.528999    0.753391     0.007504
AU3713   AU        0.622488    0.565377    0.721877     0.007504
AU3714   AU        0.657406    0.529681    0.720207     0.007504
AU3715   AU        0.659313    0.565925    0.751902     0.007504
NI3716   NI        0.693303    0.537184    0.742185     0.004307
NI3717   NI        0.704275    0.571576    0.724061     0.004307
NI3718   NI        0.747178    0.497812    0.732519     0.004307
NI3719   NI        0.173121    0.595060    0.767009     0.004307
NI3720   NI        0.204758    0.622321    0.767691     0.004307
NI3721   NI        0.168861    0.629407    0.728596     0.004307
NI3722   NI        0.228364    0.597131    0.730858     0.004307
NI3723   NI        0.238350    0.623558    0.795369     0.004307
AU3724   AU        0.264270    0.606703    0.753958     0.007504
AU3725   AU        0.268419    0.639391    0.720351     0.007504
AU3726   AU        0.302152    0.601240    0.723336     0.007504
AU3727   AU        0.298317    0.645209    0.756705     0.007504
AU3728   AU        0.332306    0.605017    0.765727     0.007504
AU3729   AU        0.329010    0.634102    0.728282     0.007504
AU3730   AU        0.379432    0.600828    0.724233     0.007504
AU3731   AU        0.366440    0.641723    0.748789     0.007504
AU3732   AU        0.402976    0.609870    0.761752     0.007504
AU3733   AU        0.410013    0.642607    0.723456     0.007504
AU3734   AU        0.446117    0.611803    0.732149     0.007504
AU3735   AU        0.439349    0.643124    0.766958     0.007504
AU3736   AU        0.479797    0.613103    0.771473     0.007504
AU3737   AU        0.486561    0.639485    0.729382     0.007504
AU3738   AU        0.519977    0.601365    0.727060     0.007504
AU3739   AU        0.518404    0.636563    0.764345     0.007504
AU3740   AU        0.557038    0.604471    0.761823     0.007504
AU3741   AU        0.552716    0.639470    0.726866     0.007504
AU3742   AU        0.589287    0.606907    0.723242     0.007504
NI3743   NI        0.600548    0.610349    0.783690     0.004307
AU3744   AU        0.632298    0.607042    0.752242     0.007504
NI3745   NI        0.640075    0.654779    0.724306     0.004307
AU3746   AU        0.668507    0.611814    0.727100     0.007504
NI3747   NI        0.674704    0.633960    0.768561     0.004307
NI3748   NI        0.678547    0.589614    0.791105     0.004307
NI3749   NI        0.683222    0.659243    0.729351     0.004307
NI3750   NI        0.707180    0.613640    0.745610     0.004307
NI3751   NI        0.223755    0.658141    0.738204     0.004307
NI3752   NI        0.289560    0.692975    0.769157     0.004307
NI3753   NI        0.254594    0.705364    0.735284     0.004307
AU3754   AU        0.291823    0.682064    0.719760     0.007504
NI3755   NI        0.332037    0.718953    0.776707     0.004307
AU3756   AU        0.330904    0.680851    0.749282     0.007504
AU3757   AU        0.335892    0.716431    0.726117     0.007504
AU3758   AU        0.377655    0.683615    0.726390     0.007504
NI3759   NI        0.370935    0.719982    0.762744     0.004307
AU3760   AU        0.407510    0.677532    0.761921     0.007504
AU3761   AU        0.417025    0.706340    0.718772     0.007504
AU3762   AU        0.445362    0.666875    0.728228     0.007504
AU3763   AU        0.448544    0.708175    0.757070     0.007504
AU3764   AU        0.481766    0.670832    0.762822     0.007504
AU3765   AU        0.489920    0.714640    0.740901     0.007504
AU3766   AU        0.522664    0.675818    0.731314     0.007504
NI3767   NI        0.523321    0.690202    0.773954     0.004307
NI3768   NI        0.557972    0.653360    0.766644     0.004307
AU3769   AU        0.564473    0.692598    0.735784     0.007504
AU3770   AU        0.601481    0.651064    0.743417     0.007504
NI3771   NI        0.593084    0.686934    0.772450     0.004307
NI3772   NI        0.634148    0.690847    0.749893     0.004307
NI3773   NI        0.605224    0.723791    0.733989     0.004307
NI3774   NI        0.644143    0.689699    0.696151     0.004307
NI3775   NI        0.292005    0.728160    0.727263     0.004307
AU3776   AU        0.383023    0.735565    0.720620     0.007504
NI3777   NI        0.393108    0.757450    0.788600     0.004307
NI3778   NI        0.381344    0.775123    0.744442     0.004307
NI3779   NI        0.417107    0.740003    0.749917     0.004307
NI3780   NI        0.464968    0.752115    0.757257     0.004307
NI3781   NI        0.448120    0.780240    0.728365     0.004307
NI3782   NI        0.536591    0.728220    0.742203     0.004307
NI3783   NI        0.579128    0.758293    0.735633     0.004307
NI3784   NI        0.431996    0.241042    0.812483     0.004307
NI3785   NI        0.475263    0.245309    0.848484     0.004307
NI3786   NI        0.254388    0.294547    0.804562     0.004307
NI3787   NI        0.305024    0.299077    0.801057     0.004307
NI3788   NI        0.365847    0.246293    0.811815     0.004307
NI3789   NI        0.340864    0.297975    0.825934     0.004307
NI3790   NI        0.401898    0.271294    0.812489     0.004307
NI3791   NI        0.469653    0.240337    0.797341     0.004307
NI3792   NI        0.453882    0.282563    0.831007     0.004307
NI3793   NI        0.496939    0.271152    0.802943     0.004307
NI3794   NI        0.521875    0.234903    0.791856     0.004307
NI3795   NI        0.551709    0.350047    0.861779     0.004307
NI3796   NI        0.553495    0.263872    0.789497     0.004307
NI3797   NI        0.617238    0.276459    0.812177     0.004307
NI3798   NI        0.260847    0.362850    0.782060     0.004307
NI3799   NI        0.294127    0.345251    0.805399     0.004307
NI3800   NI        0.311125    0.377649    0.825832     0.004307
NI3801   NI        0.348627    0.347757    0.827827     0.004307
AU3802   AU        0.338821    0.361414    0.787662     0.007504
AU3803   AU        0.367110    0.323230    0.786536     0.007504
NI3804   NI        0.390807    0.376012    0.827281     0.004307
NI3805   NI        0.406348    0.314998    0.829544     0.004307
AU3806   AU        0.411942    0.339821    0.786450     0.007504
AU3807   AU        0.448335    0.305004    0.792924     0.007504
NI3808   NI        0.450232    0.329856    0.828423     0.004307
NI3809   NI        0.524057    0.338545    0.831789     0.004307
AU3810   AU        0.485514    0.339075    0.791391     0.007504
AU3811   AU        0.525840    0.309553    0.788296     0.007504
NI3812   NI        0.530496    0.387754    0.846525     0.004307
NI3813   NI        0.569634    0.309437    0.843475     0.004307
AU3814   AU        0.560755    0.347064    0.801623     0.007504
NI3815   NI        0.596228    0.323798    0.808469     0.004307
NI3816   NI        0.595166    0.355037    0.844360     0.004307
NI3817   NI        0.636939    0.348212    0.800981     0.004307
NI3818   NI        0.221020    0.445365    0.807367     0.004307
NI3819   NI        0.224052    0.358258    0.798713     0.004307
NI3820   NI        0.258708    0.384749    0.818088     0.004307
AU3821   AU        0.263468    0.425929    0.786074     0.007504
AU3822   AU        0.301368    0.393696    0.786928     0.007504
NI3823   NI        0.301154    0.430341    0.820166     0.004307
NI3824   NI        0.402930    0.401497    0.863903     0.004307
AU3825   AU        0.339221    0.422842    0.788324     0.007504
AU3826   AU        0.376885    0.395303    0.783245     0.007504
AU3827   AU        0.364437    0.418747    0.829317     0.007504
NI3828   NI        0.435955    0.374817    0.839669     0.004307
AU3829   AU        0.412314    0.413239    0.811330     0.007504
AU3830   AU        0.449533    0.378525    0.791151     0.007504
AU3831   AU        0.462801    0.410416    0.830270     0.007504
AU3832   AU        0.484932    0.367797    0.825365     0.007504
AU3833   AU        0.486093    0.406705    0.791461     0.007504
AU3834   AU        0.527436    0.382867    0.803935     0.007504
AU3835   AU        0.508691    0.425160    0.830018     0.007504
NI3836   NI        0.572065    0.397726    0.841125     0.004307
AU3837   AU        0.561846    0.420777    0.797139     0.007504
AU3838   AU        0.597154    0.382149    0.804757     0.007504
NI3839   NI        0.562092    0.442515    0.836181     0.004307
NI3840   NI        0.635617    0.381331    0.837554     0.004307
NI3841   NI        0.637280    0.414257    0.807725     0.004307
NI3842   NI        0.667420    0.384433    0.798597     0.004307
NI3843   NI        0.752760    0.424284    0.782142     0.004307
NI3844   NI        0.184455    0.545890    0.768394     0.004307
NI3845   NI        0.224647    0.489518    0.799369     0.004307
AU3846   AU        0.263714    0.472221    0.792589     0.007504
AU3847   AU        0.264892    0.524143    0.792834     0.007504
AU3848   AU        0.305117    0.456905    0.785610     0.007504
NI3849   NI        0.298521    0.474480    0.850509     0.004307
AU3850   AU        0.338773    0.463543    0.822688     0.007504
AU3851   AU        0.336893    0.488560    0.782472     0.007504
AU3852   AU        0.380110    0.452788    0.791707     0.007504
AU3853   AU        0.378536    0.490929    0.813206     0.007504
AU3854   AU        0.398704    0.451242    0.838067     0.007504
AU3855   AU        0.422528    0.486477    0.780620     0.007504
AU3856   AU        0.439629    0.456190    0.814470     0.007504
AU3857   AU        0.419451    0.496199    0.829644     0.007504
NI3858   NI        0.475746    0.453733    0.849835     0.004307
AU3859   AU        0.460197    0.496330    0.802703     0.007504
AU3860   AU        0.490256    0.457269    0.798105     0.007504
AU3861   AU        0.509111    0.498846    0.817366     0.007504
AU3862   AU        0.538597    0.460519    0.803807     0.007504
AU3863   AU        0.546063    0.505479    0.786019     0.007504
AU3864   AU        0.586962    0.470364    0.794032     0.007504
NI3865   NI        0.601326    0.488739    0.839861     0.004307
NI3866   NI        0.618442    0.452770    0.817387     0.004307
NI3867   NI        0.629586    0.499416    0.787026     0.004307
NI3868   NI        0.663803    0.457228    0.799279     0.004307
NI3869   NI        0.724262    0.514696    0.764965     0.004307
NI3870   NI        0.218115    0.540440    0.804940     0.004307
NI3871   NI        0.259320    0.502802    0.830653     0.004307
NI3872   NI        0.269207    0.582076    0.798788     0.004307
AU3873   AU        0.306590    0.500286    0.811652     0.007504
NI3874   NI        0.302416    0.542223    0.823627     0.004307
AU3875   AU        0.350122    0.533211    0.809548     0.007504
AU3876   AU        0.322392    0.574876    0.803181     0.007504
AU3877   AU        0.398042    0.529191    0.795821     0.007504
NI3878   NI        0.365612    0.573526    0.828866     0.004307
NI3879   NI        0.416693    0.580003    0.850498     0.004307
AU3880   AU        0.421170    0.572978    0.788904     0.007504
AU3881   AU        0.430992    0.538822    0.824368     0.007504
AU3882   AU        0.480528    0.580432    0.822272     0.007504
AU3883   AU        0.473525    0.536816    0.814725     0.007504
AU3884   AU        0.484099    0.564001    0.778351     0.007504
AU3885   AU        0.521010    0.548209    0.811228     0.007504
NI3886   NI        0.512950    0.570591    0.856006     0.004307
NI3887   NI        0.560812    0.498442    0.826169     0.004307
AU3888   AU        0.564893    0.565465    0.794395     0.007504
AU3889   AU        0.590810    0.524154    0.794792     0.007504
NI3890   NI        0.552059    0.577747    0.835816     0.004307
NI3891   NI        0.609558    0.548288    0.833995     0.004307
NI3892   NI        0.626116    0.551467    0.790290     0.004307
NI3893   NI        0.663654    0.530703    0.784243     0.004307
NI3894   NI        0.310276    0.587345    0.841190     0.004307
NI3895   NI        0.298837    0.617296    0.799383     0.004307
NI3896   NI        0.329561    0.516283    0.853618     0.004307
NI3897   NI        0.345810    0.608972    0.810218     0.004307
AU3898   AU        0.395592    0.604892    0.814870     0.007504
NI3899   NI        0.377275    0.640813    0.790410     0.004307
NI3900   NI        0.422642    0.620759    0.848647     0.004307
NI3901   NI        0.415781    0.652803    0.805120     0.004307
AU3902   AU        0.446683    0.611869    0.806365     0.007504
NI3903   NI        0.476919    0.657225    0.805095     0.004307
NI3904   NI        0.477241    0.620903    0.838215     0.004307
NI3905   NI        0.516813    0.639825    0.810606     0.004307
AU3906   AU        0.522486    0.595712    0.795122     0.007504
NI3907   NI        0.503265    0.645355    0.860447     0.004307
NI3908   NI        0.517139    0.608161    0.837356     0.004307
NI3909   NI        0.564312    0.617071    0.803661     0.004307
NI3910   NI        0.623782    0.589304    0.817192     0.004307
NI3911   NI        0.632643    0.647285    0.780145     0.004307
NI3912   NI        0.369413    0.679891    0.784114     0.004307
NI3913   NI        0.408272    0.711400    0.786848     0.004307
NI3914   NI        0.442918    0.688653    0.801071     0.004307
NI3915   NI        0.486220    0.705080    0.792494     0.004307
NI3916   NI        0.549563    0.669974    0.804671     0.004307
NI3917   NI        0.434076    0.426763    0.855754     0.004307
NI3918   NI        0.449966    0.366653    0.881985     0.004307
NI3919   NI        0.488235    0.398790    0.865714     0.004307
NI3920   NI        0.374641    0.486045    0.858618     0.004307
NI3921   NI        0.387332    0.527884    0.838314     0.004307
NI3922   NI        0.428978    0.477012    0.871176     0.004307
NI3923   NI        0.460453    0.502958    0.854287     0.004307
NI3924   NI        0.532710    0.465813    0.853048     0.004307
NI3925   NI        0.503007    0.520642    0.853954     0.004307
