data_00001
_audit_creation_method   'DISCUS'

_data_chemical_name_common 'Au.cell: Pearson 85'

_cell_length_a             61.1835
_cell_length_b             57.1046
_cell_length_c             61.1835
_cell_angle_alpha     90.0000
_cell_angle_beta      90.0000
_cell_angle_gamma     90.0000

_symmetry_space_group_name_H-M   'P1              '

loop_
_atom_site_label
_atom_site_symbol
_atom_site_fract_x
_atom_site_fract_y
_atom_site_fract_z
_atom_site_u_iso_or_equiv
PD1   PD        0.388079    0.240600    0.040574     0.005394
PD2   PD        0.458775    0.212949    0.067590     0.005394
PD3   PD        0.539974    0.280062    0.071649     0.005394
PD4   PD        0.328638    0.353376    0.072250     0.005394
PD5   PD        0.361150    0.319100    0.071961     0.005394
PD6   PD        0.391065    0.356732    0.074297     0.005394
PD7   PD        0.425877    0.322774    0.071606     0.005394
PD8   PD        0.461598    0.358175    0.071914     0.005394
PD9   PD        0.505884    0.311398    0.072162     0.005394
PD10   PD        0.528796    0.352455    0.073478     0.005394
PD11   PD        0.562399    0.358852    0.031026     0.005394
PD12   PD        0.599296    0.391099    0.042000     0.005394
PD13   PD        0.299053    0.389597    0.072897     0.005394
PD14   PD        0.328281    0.427096    0.075296     0.005394
AU15   AU        0.360781    0.390900    0.074679     0.007504
PD16   PD        0.397322    0.426472    0.072138     0.005394
PD17   PD        0.426558    0.390034    0.071542     0.005394
PD18   PD        0.435024    0.428479    0.040496     0.005394
PD19   PD        0.462080    0.386784    0.043223     0.005394
PD20   PD        0.465296    0.428049    0.076331     0.005394
PD21   PD        0.498642    0.387804    0.075954     0.005394
PD22   PD        0.496672    0.428798    0.046322     0.005394
PD23   PD        0.529095    0.425539    0.075033     0.005394
PD24   PD        0.567067    0.394554    0.069610     0.005394
PD25   PD        0.598571    0.427957    0.072919     0.005394
PD26   PD        0.632260    0.388390    0.074060     0.005394
PD27   PD        0.331020    0.457096    0.037386     0.005394
PD28   PD        0.330093    0.497166    0.073009     0.005394
PD29   PD        0.362084    0.461666    0.075241     0.005394
AU30   AU        0.396449    0.463095    0.041754     0.007504
AU31   AU        0.397029    0.497164    0.073121     0.007504
AU32   AU        0.429197    0.463046    0.074702     0.007504
PD33   PD        0.429314    0.499702    0.041238     0.005394
PD34   PD        0.461514    0.466042    0.039847     0.005394
PD35   PD        0.463170    0.495481    0.075656     0.005394
PD36   PD        0.496796    0.462773    0.074611     0.005394
PD37   PD        0.497931    0.496222    0.039149     0.005394
PD38   PD        0.563813    0.534381    0.000667     0.005394
PD39   PD        0.533377    0.493976    0.071894     0.005394
PD40   PD        0.566607    0.460308    0.072676     0.005394
PD41   PD        0.599985    0.493769    0.075040     0.005394
AU42   AU        0.635671    0.460055    0.074166     0.007504
PD43   PD        0.294072    0.532692    0.073900     0.005394
PD44   PD        0.329519    0.567915    0.074490     0.005394
PD45   PD        0.366118    0.533042    0.070490     0.005394
PD46   PD        0.395830    0.569414    0.073457     0.005394
PD47   PD        0.428163    0.536036    0.074192     0.005394
PD48   PD        0.461076    0.532797    0.040147     0.005394
PD49   PD        0.464279    0.568278    0.073587     0.005394
PD50   PD        0.496312    0.533276    0.073566     0.005394
PD51   PD        0.530437    0.569009    0.073000     0.005394
PD52   PD        0.564806    0.530589    0.072327     0.005394
PD53   PD        0.597292    0.567498    0.075054     0.005394
PD54   PD        0.630391    0.535306    0.070455     0.005394
PD55   PD        0.361858    0.640435    0.035804     0.005394
PD56   PD        0.395007    0.639145    0.071577     0.005394
AU57   AU        0.431570    0.602471    0.071634     0.007504
PD58   PD        0.466700    0.638152    0.070073     0.005394
PD59   PD        0.495875    0.601980    0.074423     0.005394
PD60   PD        0.498610    0.632156    0.037842     0.005394
PD61   PD        0.563843    0.603007    0.073129     0.005394
PD62   PD        0.330675    0.210834    0.142705     0.005394
PD63   PD        0.393425    0.206703    0.142763     0.005394
PD64   PD        0.430017    0.174133    0.142456     0.005394
PD65   PD        0.397462    0.212899    0.069362     0.005394
PD66   PD        0.463055    0.209895    0.142308     0.005394
PD67   PD        0.498031    0.179478    0.136565     0.005394
PD68   PD        0.487324    0.208163    0.103192     0.005394
PD69   PD        0.535955    0.210140    0.141593     0.005394
PD70   PD        0.599392    0.207027    0.146285     0.005394
PD71   PD        0.297388    0.283619    0.103883     0.005394
PD72   PD        0.296749    0.248081    0.142137     0.005394
PD73   PD        0.328347    0.284008    0.072400     0.005394
PD74   PD        0.327492    0.285114    0.138538     0.005394
PD75   PD        0.364265    0.242584    0.140444     0.005394
PD76   PD        0.359845    0.283302    0.107365     0.005394
PD77   PD        0.393238    0.251129    0.101466     0.005394
AU78   AU        0.393306    0.282068    0.137856     0.007504
PD79   PD        0.425611    0.244811    0.140031     0.005394
PD80   PD        0.455659    0.282264    0.070680     0.005394
PD81   PD        0.458837    0.244073    0.103731     0.005394
PD82   PD        0.455263    0.284683    0.131476     0.005394
PD83   PD        0.500532    0.241815    0.140946     0.005394
PD84   PD        0.506784    0.276849    0.105826     0.005394
AU85   AU        0.533204    0.245380    0.109074     0.007504
PD86   PD        0.535462    0.278168    0.142802     0.005394
PD87   PD        0.568678    0.241798    0.142200     0.005394
PD88   PD        0.569036    0.279697    0.105222     0.005394
PD89   PD        0.600907    0.278032    0.143054     0.005394
PD90   PD        0.630054    0.241727    0.142441     0.005394
PD91   PD        0.629637    0.285577    0.106537     0.005394
PD92   PD        0.670544    0.291867    0.129634     0.005394
PD93   PD        0.264195    0.318413    0.098645     0.005394
PD94   PD        0.264075    0.353479    0.139296     0.005394
PD95   PD        0.294714    0.318987    0.137614     0.005394
PD96   PD        0.296348    0.354826    0.106119     0.005394
PD97   PD        0.330643    0.317814    0.106865     0.005394
AU98   AU        0.328053    0.353333    0.139500     0.007504
AU99   AU        0.362048    0.318466    0.139801     0.007504
AU100   AU        0.359515    0.354267    0.106828     0.007504
PD101   PD        0.390641    0.319332    0.104358     0.005394
AU102   AU        0.393114    0.355202    0.138259     0.007504
AU103   AU        0.424225    0.318699    0.134312     0.007504
PD104   PD        0.424086    0.357163    0.102845     0.005394
PD105   PD        0.459741    0.324182    0.101063     0.005394
PD106   PD        0.457354    0.353556    0.136659     0.005394
PD107   PD        0.507207    0.314592    0.137789     0.005394
PD108   PD        0.493770    0.357127    0.107435     0.005394
PD109   PD        0.539790    0.319414    0.099390     0.005394
PD110   PD        0.537150    0.351096    0.138195     0.005394
PD111   PD        0.568967    0.315647    0.139739     0.005394
PD112   PD        0.568070    0.354015    0.103839     0.005394
PD113   PD        0.602705    0.314878    0.111515     0.005394
PD114   PD        0.598774    0.354307    0.140564     0.005394
PD115   PD        0.632628    0.316844    0.144397     0.005394
PD116   PD        0.631791    0.355938    0.108397     0.005394
PD117   PD        0.664476    0.348573    0.139820     0.005394
PD118   PD        0.697976    0.316933    0.146193     0.005394
PD119   PD        0.200362    0.422639    0.135947     0.005394
PD120   PD        0.233520    0.390724    0.134625     0.005394
PD121   PD        0.228923    0.423255    0.108689     0.005394
PD122   PD        0.234905    0.356772    0.101577     0.005394
AU123   AU        0.263231    0.425796    0.142142     0.007504
PD124   PD        0.297980    0.387601    0.140122     0.005394
PD125   PD        0.296282    0.422817    0.107635     0.005394
PD126   PD        0.329297    0.390904    0.109056     0.005394
AU127   AU        0.329828    0.427136    0.138769     0.007504
AU128   AU        0.362218    0.389946    0.139652     0.007504
AU129   AU        0.362296    0.425997    0.104856     0.007504
AU130   AU        0.393261    0.390432    0.105312     0.007504
AU131   AU        0.395417    0.425331    0.135875     0.007504
PD132   PD        0.425506    0.390621    0.136801     0.005394
AU133   AU        0.429082    0.426028    0.104904     0.007504
PD134   PD        0.458397    0.389871    0.104842     0.005394
PD135   PD        0.460462    0.424194    0.138660     0.005394
PD136   PD        0.501570    0.388251    0.139681     0.005394
PD137   PD        0.497674    0.423601    0.106961     0.005394
PD138   PD        0.533521    0.389960    0.106358     0.005394
PD139   PD        0.532052    0.426696    0.136502     0.005394
PD140   PD        0.567659    0.390854    0.139903     0.005394
PD141   PD        0.566980    0.424746    0.105464     0.005394
PD142   PD        0.600087    0.392261    0.104239     0.005394
PD143   PD        0.598984    0.426053    0.139750     0.005394
PD144   PD        0.633312    0.390778    0.137761     0.005394
PD145   PD        0.633326    0.424132    0.105238     0.005394
PD146   PD        0.665226    0.393269    0.107759     0.005394
PD147   PD        0.664805    0.428256    0.139852     0.005394
PD148   PD        0.695846    0.392537    0.141207     0.005394
PD149   PD        0.694268    0.423390    0.109714     0.005394
PD150   PD        0.728050    0.425084    0.139748     0.005394
PD151   PD        0.198015    0.497557    0.141655     0.005394
PD152   PD        0.228342    0.461787    0.140016     0.005394
PD153   PD        0.233980    0.497613    0.085135     0.005394
PD154   PD        0.262474    0.461985    0.104959     0.005394
AU155   AU        0.264154    0.496080    0.140208     0.007504
PD156   PD        0.296311    0.461987    0.141014     0.005394
PD157   PD        0.295337    0.497142    0.105251     0.005394
PD158   PD        0.327832    0.461378    0.105453     0.005394
PD159   PD        0.331973    0.498024    0.139522     0.005394
PD160   PD        0.361382    0.464387    0.137460     0.005394
PD161   PD        0.364472    0.498592    0.103784     0.005394
PD162   PD        0.395452    0.460318    0.105476     0.005394
PD163   PD        0.394725    0.497884    0.137698     0.005394
AU164   AU        0.426869    0.460482    0.136231     0.007504
AU165   AU        0.428203    0.498007    0.105607     0.007504
PD166   PD        0.462563    0.462591    0.106855     0.005394
PD167   PD        0.463536    0.496763    0.137810     0.005394
PD168   PD        0.496887    0.462285    0.137564     0.005394
PD169   PD        0.496111    0.501533    0.104913     0.005394
PD170   PD        0.532111    0.464309    0.105732     0.005394
PD171   PD        0.529179    0.501290    0.137879     0.005394
PD172   PD        0.566064    0.462103    0.139167     0.005394
PD173   PD        0.565837    0.497358    0.109283     0.005394
AU174   AU        0.598036    0.458876    0.106698     0.007504
AU175   AU        0.599049    0.497263    0.137226     0.007504
AU176   AU        0.632793    0.461592    0.138473     0.007504
PD177   PD        0.632567    0.494121    0.105494     0.005394
PD178   PD        0.665599    0.462423    0.107672     0.005394
PD179   PD        0.665285    0.498631    0.138135     0.005394
PD180   PD        0.696199    0.461998    0.139322     0.005394
AU181   AU        0.697821    0.497946    0.106626     0.007504
PD182   PD        0.732616    0.530105    0.102740     0.005394
PD183   PD        0.229452    0.533576    0.139885     0.005394
PD184   PD        0.264218    0.530723    0.107458     0.005394
PD185   PD        0.262984    0.567393    0.140653     0.005394
PD186   PD        0.298625    0.533381    0.139196     0.005394
PD187   PD        0.295337    0.568304    0.103524     0.005394
AU188   AU        0.329616    0.531540    0.106169     0.007504
PD189   PD        0.328884    0.567474    0.137676     0.005394
PD190   PD        0.359607    0.530851    0.138980     0.005394
PD191   PD        0.361875    0.567304    0.104842     0.005394
AU192   AU        0.395410    0.532769    0.105028     0.007504
PD193   PD        0.396355    0.571841    0.135586     0.005394
PD194   PD        0.428866    0.532153    0.135241     0.005394
AU195   AU        0.428187    0.570021    0.105526     0.007504
PD196   PD        0.462979    0.534439    0.103476     0.005394
PD197   PD        0.463003    0.570285    0.136391     0.005394
PD198   PD        0.500316    0.536055    0.138089     0.005394
PD199   PD        0.498265    0.569800    0.105524     0.005394
AU200   AU        0.531898    0.535036    0.104392     0.007504
AU201   AU        0.533248    0.571189    0.138357     0.007504
PD202   PD        0.565976    0.535848    0.140118     0.005394
PD203   PD        0.565217    0.570595    0.107089     0.005394
PD204   PD        0.596013    0.533961    0.105011     0.005394
PD205   PD        0.600306    0.569669    0.139504     0.005394
PD206   PD        0.631202    0.531015    0.138933     0.005394
PD207   PD        0.628775    0.575334    0.104388     0.005394
PD208   PD        0.661802    0.533600    0.103456     0.005394
PD209   PD        0.665468    0.564754    0.135482     0.005394
PD210   PD        0.697529    0.531274    0.141597     0.005394
PD211   PD        0.229290    0.602231    0.139601     0.005394
PD212   PD        0.260500    0.640500    0.137121     0.005394
PD213   PD        0.297205    0.604995    0.139396     0.005394
PD214   PD        0.293296    0.639606    0.105830     0.005394
PD215   PD        0.329704    0.602434    0.105084     0.005394
PD216   PD        0.330388    0.640843    0.140995     0.005394
PD217   PD        0.362240    0.606012    0.137605     0.005394
PD218   PD        0.364231    0.642614    0.105399     0.005394
PD219   PD        0.396546    0.608000    0.103313     0.005394
PD220   PD        0.397735    0.642686    0.137172     0.005394
PD221   PD        0.432334    0.605617    0.136157     0.005394
AU222   AU        0.431772    0.641455    0.103213     0.007504
PD223   PD        0.462829    0.603920    0.102570     0.005394
AU224   AU        0.464533    0.641194    0.137704     0.007504
PD225   PD        0.498764    0.606727    0.138252     0.005394
PD226   PD        0.495980    0.638221    0.105805     0.005394
AU227   AU        0.531516    0.604188    0.106001     0.007504
PD228   PD        0.529160    0.640651    0.138604     0.005394
AU229   AU        0.563234    0.605670    0.138390     0.007504
PD230   PD        0.565305    0.640281    0.105424     0.005394
PD231   PD        0.597681    0.603122    0.105620     0.005394
PD232   PD        0.596396    0.639527    0.138127     0.005394
PD233   PD        0.633616    0.605185    0.138037     0.005394
PD234   PD        0.629148    0.640640    0.105323     0.005394
PD235   PD        0.665082    0.642833    0.141364     0.005394
PD236   PD        0.692850    0.609039    0.137393     0.005394
PD237   PD        0.293123    0.675713    0.139174     0.005394
PD238   PD        0.328789    0.708648    0.142546     0.005394
PD239   PD        0.365091    0.676511    0.138455     0.005394
PD240   PD        0.395576    0.677857    0.102717     0.005394
PD241   PD        0.399466    0.710457    0.138306     0.005394
PD242   PD        0.431701    0.677909    0.139456     0.005394
PD243   PD        0.431719    0.788879    0.106820     0.005394
PD244   PD        0.467858    0.674436    0.105078     0.005394
PD245   PD        0.465610    0.713496    0.137597     0.005394
AU246   AU        0.497259    0.677140    0.138228     0.007504
PD247   PD        0.498876    0.708280    0.101219     0.005394
PD248   PD        0.530206    0.674513    0.107583     0.005394
PD249   PD        0.532784    0.711941    0.138466     0.005394
PD250   PD        0.564003    0.676221    0.138455     0.005394
PD251   PD        0.598823    0.709210    0.138476     0.005394
AU252   AU        0.626764    0.676072    0.137906     0.007504
PD253   PD        0.430171    0.748974    0.137025     0.005394
PD254   PD        0.500074    0.744414    0.134165     0.005394
PD255   PD        0.329966    0.138346    0.205780     0.005394
PD256   PD        0.398097    0.138148    0.205444     0.005394
PD257   PD        0.428715    0.100721    0.211536     0.005394
PD258   PD        0.465500    0.101724    0.167800     0.005394
PD259   PD        0.495080    0.107160    0.204224     0.005394
PD260   PD        0.498397    0.066951    0.237625     0.005394
PD261   PD        0.497380    0.138093    0.169438     0.005394
PD262   PD        0.563991    0.100019    0.208375     0.005394
PD263   PD        0.597668    0.136982    0.211672     0.005394
PD264   PD        0.264716    0.209314    0.203288     0.005394
PD265   PD        0.261871    0.133879    0.209221     0.005394
PD266   PD        0.297383    0.213112    0.172040     0.005394
PD267   PD        0.364724    0.133272    0.176275     0.005394
PD268   PD        0.328518    0.209578    0.205086     0.005394
PD269   PD        0.362321    0.171205    0.205643     0.005394
PD270   PD        0.363759    0.207782    0.175440     0.005394
AU271   AU        0.396303    0.174876    0.173773     0.007504
AU272   AU        0.396286    0.209643    0.204953     0.007504
PD273   PD        0.428631    0.175566    0.205240     0.005394
PD274   PD        0.428900    0.210489    0.171843     0.005394
PD275   PD        0.464158    0.172611    0.168560     0.005394
PD276   PD        0.464126    0.214243    0.204374     0.005394
PD277   PD        0.497238    0.176241    0.207102     0.005394
PD278   PD        0.494855    0.210662    0.171108     0.005394
PD279   PD        0.526523    0.175146    0.173068     0.005394
PD280   PD        0.530537    0.209337    0.207341     0.005394
PD281   PD        0.565211    0.173921    0.204677     0.005394
PD282   PD        0.568439    0.208682    0.177649     0.005394
PD283   PD        0.600270    0.171859    0.172150     0.005394
AU284   AU        0.598952    0.209240    0.205869     0.007504
PD285   PD        0.631924    0.173903    0.207618     0.005394
PD286   PD        0.633533    0.210159    0.175954     0.005394
PD287   PD        0.665682    0.208683    0.207969     0.005394
PD288   PD        0.195250    0.281788    0.207751     0.005394
PD289   PD        0.231081    0.244973    0.205143     0.005394
PD290   PD        0.229144    0.281082    0.175834     0.005394
PD291   PD        0.260681    0.248368    0.170626     0.005394
PD292   PD        0.265106    0.277835    0.206052     0.005394
PD293   PD        0.297325    0.246366    0.204319     0.005394
PD294   PD        0.298364    0.284255    0.172706     0.005394
PD295   PD        0.331899    0.245400    0.172861     0.005394
PD296   PD        0.330884    0.281143    0.206936     0.005394
PD297   PD        0.362664    0.246013    0.205859     0.005394
PD298   PD        0.364507    0.281959    0.170844     0.005394
PD299   PD        0.393817    0.245836    0.171810     0.005394
AU300   AU        0.396362    0.282308    0.204449     0.007504
PD301   PD        0.428325    0.246554    0.204813     0.005394
PD302   PD        0.425920    0.280957    0.169282     0.005394
PD303   PD        0.465302    0.250419    0.170237     0.005394
PD304   PD        0.464486    0.278251    0.209987     0.005394
AU305   AU        0.499094    0.242508    0.204949     0.007504
PD306   PD        0.501133    0.280798    0.175472     0.005394
PD307   PD        0.532499    0.244109    0.174511     0.005394
AU308   AU        0.534034    0.280132    0.206279     0.007504
PD309   PD        0.565175    0.246218    0.208397     0.005394
AU310   AU        0.566775    0.279009    0.173203     0.007504
PD311   PD        0.597898    0.246837    0.176537     0.005394
PD312   PD        0.598478    0.283332    0.205459     0.005394
PD313   PD        0.632129    0.243046    0.206280     0.005394
PD314   PD        0.632987    0.278727    0.177222     0.005394
PD315   PD        0.666690    0.242364    0.177001     0.005394
PD316   PD        0.665552    0.282037    0.206012     0.005394
PD317   PD        0.697934    0.245504    0.210545     0.005394
PD318   PD        0.698075    0.279800    0.176571     0.005394
PD319   PD        0.774027    0.288839    0.172616     0.005394
PD320   PD        0.162801    0.315799    0.205776     0.005394
PD321   PD        0.195514    0.315680    0.172586     0.005394
PD322   PD        0.194050    0.352888    0.205506     0.005394
PD323   PD        0.228981    0.319988    0.202423     0.005394
PD324   PD        0.230690    0.357034    0.173342     0.005394
PD325   PD        0.262877    0.316929    0.171198     0.005394
PD326   PD        0.262862    0.351894    0.205144     0.005394
AU327   AU        0.295295    0.317948    0.204514     0.007504
AU328   AU        0.296008    0.354144    0.171818     0.007504
AU329   AU        0.329910    0.317361    0.172251     0.007504
AU330   AU        0.331024    0.355245    0.204253     0.007504
AU331   AU        0.364167    0.317281    0.204200     0.007504
AU332   AU        0.361912    0.352973    0.171398     0.007504
PD333   PD        0.394481    0.320114    0.172214     0.005394
AU334   AU        0.396672    0.355151    0.202967     0.007504
AU335   AU        0.429015    0.315526    0.204351     0.007504
PD336   PD        0.427883    0.355998    0.169354     0.005394
PD337   PD        0.455748    0.321555    0.166409     0.005394
PD338   PD        0.460016    0.352021    0.203796     0.005394
AU339   AU        0.498862    0.317261    0.205381     0.007504
PD340   PD        0.504909    0.352733    0.170535     0.005394
AU341   AU        0.535954    0.315150    0.175446     0.007504
AU342   AU        0.534607    0.351203    0.205995     0.007504
PD343   PD        0.567414    0.315896    0.208593     0.005394
AU344   AU        0.566670    0.350884    0.173690     0.007504
PD345   PD        0.599132    0.317903    0.176071     0.005394
AU346   AU        0.598985    0.352358    0.205718     0.007504
PD347   PD        0.631782    0.316706    0.205678     0.005394
PD348   PD        0.635293    0.351897    0.173037     0.005394
PD349   PD        0.666787    0.315751    0.173479     0.005394
PD350   PD        0.666345    0.351729    0.207242     0.005394
PD351   PD        0.697519    0.317828    0.207289     0.005394
PD352   PD        0.696714    0.355654    0.173085     0.005394
PD353   PD        0.736130    0.358771    0.070579     0.005394
PD354   PD        0.733201    0.351751    0.207669     0.005394
PD355   PD        0.769591    0.323019    0.204012     0.005394
PD356   PD        0.097907    0.426414    0.234942     0.005394
PD357   PD        0.165124    0.392577    0.206629     0.005394
PD358   PD        0.168711    0.428252    0.170541     0.005394
PD359   PD        0.199742    0.390118    0.173900     0.005394
AU360   AU        0.196778    0.426167    0.205128     0.007504
PD361   PD        0.230667    0.389953    0.204893     0.005394
PD362   PD        0.231606    0.424137    0.172683     0.005394
AU363   AU        0.264163    0.389216    0.171858     0.007504
PD364   PD        0.262188    0.423245    0.205830     0.005394
AU365   AU        0.296396    0.386646    0.204145     0.007504
PD366   PD        0.297097    0.424114    0.170438     0.005394
AU367   AU        0.328913    0.391022    0.171327     0.007504
AU368   AU        0.330003    0.423599    0.205452     0.007504
AU369   AU        0.362869    0.389286    0.202515     0.007504
AU370   AU        0.363702    0.425975    0.171336     0.007504
AU371   AU        0.395243    0.388948    0.169670     0.007504
AU372   AU        0.394987    0.425263    0.205705     0.007504
AU373   AU        0.427202    0.389684    0.205713     0.007504
AU374   AU        0.427076    0.424217    0.171593     0.007504
PD375   PD        0.457306    0.387157    0.170387     0.005394
PD376   PD        0.459667    0.424896    0.204451     0.005394
PD377   PD        0.501985    0.388729    0.208910     0.005394
PD378   PD        0.493599    0.428650    0.167580     0.005394
AU379   AU        0.536341    0.389115    0.170387     0.007504
PD380   PD        0.533054    0.424915    0.201418     0.005394
PD381   PD        0.567420    0.388632    0.206089     0.005394
AU382   AU        0.568281    0.427996    0.172820     0.007504
AU383   AU        0.598278    0.389196    0.172796     0.007504
AU384   AU        0.601124    0.428680    0.204973     0.007504
PD385   PD        0.631947    0.390678    0.204365     0.005394
PD386   PD        0.632051    0.424378    0.169610     0.005394
PD387   PD        0.663353    0.391763    0.172329     0.005394
PD388   PD        0.665530    0.428119    0.204384     0.005394
AU389   AU        0.697396    0.391905    0.204186     0.007504
PD390   PD        0.696746    0.427666    0.171503     0.005394
PD391   PD        0.733379    0.390940    0.174058     0.005394
PD392   PD        0.729119    0.429254    0.206633     0.005394
PD393   PD        0.763163    0.388908    0.206711     0.005394
PD394   PD        0.764799    0.426428    0.174824     0.005394
PD395   PD        0.795491    0.425193    0.208617     0.005394
PD396   PD        0.131916    0.495540    0.205030     0.005394
AU397   AU        0.165814    0.461041    0.205352     0.007504
PD398   PD        0.130858    0.494512    0.141414     0.005394
PD399   PD        0.197390    0.461526    0.172874     0.005394
AU400   AU        0.197448    0.495899    0.204286     0.007504
AU401   AU        0.229587    0.462240    0.204663     0.007504
AU402   AU        0.232353    0.498570    0.172998     0.007504
PD403   PD        0.263204    0.463271    0.174312     0.005394
PD404   PD        0.262994    0.497647    0.204705     0.005394
AU405   AU        0.296885    0.459989    0.203452     0.007504
AU406   AU        0.295499    0.496203    0.171480     0.007504
AU407   AU        0.328575    0.461677    0.171853     0.007504
AU408   AU        0.328633    0.498525    0.204036     0.007504
AU409   AU        0.362152    0.462928    0.203525     0.007504
AU410   AU        0.363182    0.497602    0.173098     0.007504
AU411   AU        0.396744    0.461912    0.171046     0.007504
AU412   AU        0.396619    0.495864    0.205307     0.007504
AU413   AU        0.429538    0.460720    0.204800     0.007504
PD414   PD        0.428223    0.497748    0.170327     0.005394
PD415   PD        0.461285    0.461420    0.169430     0.005394
PD416   PD        0.465085    0.497401    0.204779     0.005394
AU417   AU        0.496649    0.462974    0.204861     0.007504
PD418   PD        0.495240    0.499168    0.170518     0.005394
PD419   PD        0.531550    0.462328    0.170625     0.005394
AU420   AU        0.533800    0.496548    0.204126     0.007504
AU421   AU        0.568132    0.463049    0.204670     0.007504
AU422   AU        0.566044    0.497094    0.170721     0.007504
AU423   AU        0.599635    0.463844    0.169890     0.007504
AU424   AU        0.600335    0.498521    0.203825     0.007504
AU425   AU        0.632301    0.462209    0.203387     0.007504
AU426   AU        0.634298    0.497263    0.170780     0.007504
AU427   AU        0.664748    0.463338    0.170637     0.007504
AU428   AU        0.665190    0.497301    0.204685     0.007504
AU429   AU        0.696802    0.462376    0.206233     0.007504
PD430   PD        0.696867    0.495701    0.170691     0.005394
PD431   PD        0.731048    0.460086    0.171534     0.005394
PD432   PD        0.731804    0.496664    0.207125     0.005394
PD433   PD        0.762160    0.461697    0.210566     0.005394
PD434   PD        0.765093    0.496487    0.174090     0.005394
PD435   PD        0.801422    0.428618    0.144319     0.005394
PD436   PD        0.165824    0.529897    0.204856     0.005394
AU437   AU        0.197645    0.534449    0.172988     0.007504
AU438   AU        0.196361    0.570654    0.204868     0.007504
AU439   AU        0.228596    0.534064    0.204499     0.007504
PD440   PD        0.228943    0.568942    0.173009     0.005394
PD441   PD        0.262720    0.535855    0.171454     0.005394
PD442   PD        0.263546    0.570245    0.202820     0.005394
AU443   AU        0.293730    0.532441    0.203764     0.007504
PD444   PD        0.298075    0.568301    0.171619     0.005394
PD445   PD        0.328809    0.532838    0.172877     0.005394
PD446   PD        0.329904    0.569462    0.206073     0.005394
AU447   AU        0.363518    0.533742    0.206341     0.007504
PD448   PD        0.363172    0.566704    0.172905     0.005394
PD449   PD        0.395014    0.533997    0.173168     0.005394
AU450   AU        0.394669    0.570168    0.207330     0.007504
AU451   AU        0.429051    0.534756    0.203606     0.007504
PD452   PD        0.429430    0.569823    0.168212     0.005394
AU453   AU        0.464572    0.536549    0.170628     0.007504
PD454   PD        0.465119    0.570719    0.205315     0.005394
AU455   AU        0.498287    0.534745    0.203820     0.007504
AU456   AU        0.500525    0.570155    0.172016     0.007504
PD457   PD        0.531540    0.533449    0.173965     0.005394
AU458   AU        0.533744    0.570441    0.202836     0.007504
AU459   AU        0.566388    0.533717    0.202121     0.007504
AU460   AU        0.564727    0.572034    0.170923     0.007504
PD461   PD        0.598879    0.532963    0.170141     0.005394
AU462   AU        0.596763    0.570802    0.204314     0.007504
AU463   AU        0.632389    0.534267    0.204590     0.007504
PD464   PD        0.631854    0.570486    0.171278     0.005394
PD465   PD        0.664814    0.532583    0.172369     0.005394
PD466   PD        0.663121    0.569995    0.206157     0.005394
PD467   PD        0.697598    0.532053    0.205213     0.005394
PD468   PD        0.693996    0.573273    0.170900     0.005394
PD469   PD        0.731512    0.531217    0.175917     0.005394
PD470   PD        0.734907    0.571008    0.203193     0.005394
PD471   PD        0.762387    0.533444    0.207756     0.005394
PD472   PD        0.163287    0.603385    0.205270     0.005394
PD473   PD        0.195180    0.604867    0.171219     0.005394
PD474   PD        0.197875    0.641272    0.206107     0.005394
AU475   AU        0.229413    0.604528    0.204500     0.007504
PD476   PD        0.228254    0.638455    0.174411     0.005394
AU477   AU        0.264050    0.603886    0.172220     0.007504
AU478   AU        0.262560    0.639529    0.206714     0.007504
AU479   AU        0.295923    0.606937    0.205911     0.007504
PD480   PD        0.297213    0.637938    0.170947     0.005394
PD481   PD        0.332771    0.607651    0.171057     0.005394
AU482   AU        0.330433    0.641579    0.205067     0.007504
AU483   AU        0.363737    0.606465    0.203884     0.007504
PD484   PD        0.363515    0.641929    0.171412     0.005394
PD485   PD        0.395534    0.603949    0.172744     0.005394
AU486   AU        0.396506    0.642675    0.205089     0.007504
AU487   AU        0.429989    0.605586    0.204144     0.007504
PD488   PD        0.430322    0.641275    0.171026     0.005394
PD489   PD        0.466841    0.602394    0.169212     0.005394
PD490   PD        0.463717    0.640584    0.203754     0.005394
AU491   AU        0.497666    0.604349    0.202031     0.007504
AU492   AU        0.499578    0.641535    0.171247     0.007504
AU493   AU        0.532311    0.604996    0.171725     0.007504
AU494   AU        0.531022    0.642100    0.204007     0.007504
AU495   AU        0.564450    0.606388    0.202993     0.007504
AU496   AU        0.562742    0.642367    0.171474     0.007504
AU497   AU        0.597274    0.607381    0.170387     0.007504
AU498   AU        0.595899    0.643176    0.203974     0.007504
PD499   PD        0.627895    0.607404    0.202466     0.005394
PD500   PD        0.629607    0.641811    0.170609     0.005394
PD501   PD        0.663501    0.610200    0.171508     0.005394
PD502   PD        0.664878    0.641904    0.202357     0.005394
PD503   PD        0.696252    0.608121    0.206110     0.005394
PD504   PD        0.697749    0.639854    0.173356     0.005394
PD505   PD        0.722281    0.643859    0.117551     0.005394
PD506   PD        0.732961    0.644264    0.205002     0.005394
PD507   PD        0.768793    0.604973    0.134809     0.005394
AU508   AU        0.230850    0.676252    0.204619     0.007504
PD509   PD        0.264029    0.672130    0.173013     0.005394
PD510   PD        0.262650    0.711542    0.205960     0.005394
AU511   AU        0.296769    0.675459    0.205256     0.007504
PD512   PD        0.293426    0.710319    0.171915     0.005394
PD513   PD        0.328225    0.675993    0.172567     0.005394
PD514   PD        0.328014    0.709950    0.203171     0.005394
AU515   AU        0.364569    0.676876    0.203535     0.007504
PD516   PD        0.362534    0.710656    0.170980     0.005394
PD517   PD        0.397417    0.677479    0.172066     0.005394
PD518   PD        0.396061    0.713575    0.206766     0.005394
PD519   PD        0.429166    0.677168    0.205409     0.005394
PD520   PD        0.430940    0.711636    0.172129     0.005394
PD521   PD        0.462756    0.676700    0.170614     0.005394
PD522   PD        0.462187    0.712907    0.206966     0.005394
AU523   AU        0.496539    0.677814    0.203809     0.007504
PD524   PD        0.497671    0.712777    0.172832     0.005394
AU525   AU        0.529808    0.678835    0.171870     0.007504
AU526   AU        0.529549    0.711796    0.205492     0.007504
AU527   AU        0.562953    0.677795    0.203790     0.007504
PD528   PD        0.564278    0.711066    0.168424     0.005394
AU529   AU        0.597197    0.677345    0.172421     0.007504
PD530   PD        0.597849    0.711648    0.201527     0.005394
AU531   AU        0.632500    0.677331    0.202389     0.007504
PD532   PD        0.632611    0.713530    0.169440     0.005394
PD533   PD        0.662263    0.678860    0.170735     0.005394
PD534   PD        0.663973    0.711557    0.206010     0.005394
PD535   PD        0.696869    0.675736    0.202203     0.005394
PD536   PD        0.295206    0.744916    0.206901     0.005394
PD537   PD        0.334089    0.748015    0.164374     0.005394
PD538   PD        0.361561    0.816142    0.202100     0.005394
PD539   PD        0.364922    0.748707    0.202750     0.005394
PD540   PD        0.366993    0.782681    0.167789     0.005394
PD541   PD        0.394187    0.782425    0.206116     0.005394
PD542   PD        0.427457    0.747929    0.204659     0.005394
PD543   PD        0.425240    0.781337    0.171009     0.005394
PD544   PD        0.464311    0.745767    0.172275     0.005394
PD545   PD        0.463416    0.784837    0.205752     0.005394
PD546   PD        0.498933    0.746909    0.206174     0.005394
PD547   PD        0.495894    0.781746    0.170800     0.005394
PD548   PD        0.530156    0.748189    0.168975     0.005394
PD549   PD        0.528864    0.780840    0.203816     0.005394
PD550   PD        0.561784    0.747522    0.204526     0.005394
PD551   PD        0.596123    0.744652    0.168583     0.005394
PD552   PD        0.597828    0.778836    0.203606     0.005394
PD553   PD        0.629773    0.746223    0.203954     0.005394
PD554   PD        0.458056    0.812825    0.157390     0.005394
PD555   PD        0.494521    0.816589    0.204447     0.005394
PD556   PD        0.396309    0.065641    0.272412     0.005394
PD557   PD        0.467069    0.072933    0.268706     0.005394
PD558   PD        0.533827    0.038258    0.304930     0.005394
PD559   PD        0.266596    0.140039    0.272544     0.005394
PD560   PD        0.300838    0.107361    0.269851     0.005394
PD561   PD        0.298504    0.138724    0.238626     0.005394
PD562   PD        0.330315    0.138902    0.275293     0.005394
PD563   PD        0.365347    0.105021    0.275351     0.005394
PD564   PD        0.363957    0.137749    0.237987     0.005394
PD565   PD        0.399176    0.103949    0.243366     0.005394
PD566   PD        0.395364    0.139368    0.270330     0.005394
PD567   PD        0.427266    0.104426    0.273239     0.005394
PD568   PD        0.431515    0.138338    0.238451     0.005394
PD569   PD        0.467458    0.102005    0.241540     0.005394
PD570   PD        0.466596    0.137220    0.271925     0.005394
PD571   PD        0.498364    0.105521    0.275817     0.005394
PD572   PD        0.498048    0.140164    0.239871     0.005394
PD573   PD        0.529963    0.069329    0.273388     0.005394
PD574   PD        0.533838    0.141229    0.272513     0.005394
PD575   PD        0.564112    0.106745    0.274772     0.005394
PD576   PD        0.563837    0.138782    0.239907     0.005394
PD577   PD        0.596440    0.138397    0.273766     0.005394
PD578   PD        0.633271    0.104544    0.273749     0.005394
PD579   PD        0.632009    0.136893    0.239538     0.005394
PD580   PD        0.660766    0.104663    0.307078     0.005394
AU581   AU        0.196429    0.211720    0.273250     0.007504
PD582   PD        0.230932    0.174424    0.271026     0.005394
PD583   PD        0.231208    0.207266    0.241077     0.005394
PD584   PD        0.263985    0.172836    0.237015     0.005394
AU585   AU        0.263760    0.208563    0.270432     0.007504
AU586   AU        0.297161    0.174495    0.272090     0.007504
AU587   AU        0.296481    0.210525    0.238196     0.007504
PD588   PD        0.329248    0.172453    0.240205     0.005394
AU589   AU        0.329610    0.207789    0.273061     0.007504
PD590   PD        0.363464    0.174913    0.271780     0.005394
AU591   AU        0.362113    0.210591    0.237274     0.007504
AU592   AU        0.397585    0.174864    0.238519     0.007504
AU593   AU        0.398016    0.210429    0.272012     0.007504
AU594   AU        0.429635    0.171850    0.273371     0.007504
AU595   AU        0.428258    0.209192    0.236241     0.007504
PD596   PD        0.462965    0.176010    0.237387     0.005394
PD597   PD        0.464374    0.207188    0.272781     0.005394
PD598   PD        0.496931    0.172786    0.272698     0.005394
AU599   AU        0.496211    0.210731    0.239205     0.007504
PD600   PD        0.532551    0.172558    0.239370     0.005394
AU601   AU        0.530999    0.208430    0.272692     0.007504
AU602   AU        0.565714    0.176030    0.273658     0.007504
AU603   AU        0.565459    0.208235    0.240534     0.007504
PD604   PD        0.598706    0.175501    0.239669     0.005394
AU605   AU        0.597836    0.208953    0.273212     0.007504
AU606   AU        0.631318    0.174153    0.273493     0.007504
AU607   AU        0.632582    0.207289    0.240083     0.007504
PD608   PD        0.666470    0.172762    0.238182     0.005394
AU609   AU        0.662415    0.208105    0.274251     0.007504
PD610   PD        0.695610    0.174398    0.275440     0.005394
PD611   PD        0.695463    0.210358    0.242187     0.005394
PD612   PD        0.730390    0.210810    0.273378     0.005394
PD613   PD        0.135705    0.249028    0.305786     0.005394
PD614   PD        0.167167    0.246034    0.271620     0.005394
PD615   PD        0.164372    0.279565    0.238718     0.005394
PD616   PD        0.198922    0.247295    0.240665     0.005394
AU617   AU        0.199305    0.282774    0.271194     0.007504
PD618   PD        0.231285    0.244726    0.269329     0.005394
PD619   PD        0.231786    0.283805    0.236762     0.005394
PD620   PD        0.263805    0.242704    0.239235     0.005394
AU621   AU        0.264146    0.279724    0.269979     0.007504
AU622   AU        0.297237    0.243544    0.271080     0.007504
PD623   PD        0.294866    0.282050    0.237650     0.005394
AU624   AU        0.328609    0.243643    0.238988     0.007504
PD625   PD        0.329848    0.277826    0.270437     0.005394
AU626   AU        0.362046    0.242539    0.270705     0.007504
AU627   AU        0.361773    0.279289    0.239970     0.007504
AU628   AU        0.395824    0.244994    0.238595     0.007504
AU629   AU        0.397415    0.280107    0.271833     0.007504
AU630   AU        0.429089    0.244101    0.271303     0.007504
AU631   AU        0.430526    0.282330    0.240061     0.007504
PD632   PD        0.463161    0.242531    0.238165     0.005394
AU633   AU        0.464116    0.281698    0.271515     0.007504
AU634   AU        0.497917    0.246097    0.271458     0.007504
AU635   AU        0.500135    0.280325    0.238315     0.007504
AU636   AU        0.532149    0.244600    0.239253     0.007504
AU637   AU        0.532124    0.277260    0.272174     0.007504
AU638   AU        0.566593    0.241758    0.273990     0.007504
AU639   AU        0.567151    0.280658    0.239679     0.007504
AU640   AU        0.598935    0.244731    0.240513     0.007504
AU641   AU        0.600677    0.281051    0.274805     0.007504
AU642   AU        0.631137    0.244661    0.274147     0.007504
PD643   PD        0.631793    0.278202    0.240717     0.005394
AU644   AU        0.662629    0.245294    0.241285     0.007504
AU645   AU        0.664664    0.279285    0.272673     0.007504
AU646   AU        0.696495    0.244242    0.275015     0.007504
AU647   AU        0.697447    0.279839    0.242341     0.007504
PD648   PD        0.730964    0.245238    0.241687     0.005394
PD649   PD        0.730651    0.280610    0.274737     0.005394
PD650   PD        0.762440    0.248262    0.274032     0.005394
PD651   PD        0.760228    0.283146    0.240457     0.005394
PD652   PD        0.798151    0.281772    0.274338     0.005394
PD653   PD        0.101835    0.315349    0.202440     0.005394
PD654   PD        0.165468    0.315314    0.271715     0.005394
PD655   PD        0.162995    0.355231    0.237978     0.005394
AU656   AU        0.198452    0.318691    0.236270     0.007504
AU657   AU        0.197464    0.353527    0.270749     0.007504
AU658   AU        0.229926    0.316491    0.269650     0.007504
AU659   AU        0.230322    0.352565    0.236973     0.007504
AU660   AU        0.263130    0.318371    0.237722     0.007504
AU661   AU        0.264337    0.351895    0.269181     0.007504
AU662   AU        0.296681    0.316957    0.269357     0.007504
AU663   AU        0.298189    0.352245    0.236361     0.007504
AU664   AU        0.330941    0.318471    0.234806     0.007504
AU665   AU        0.329096    0.353987    0.270400     0.007504
AU666   AU        0.362351    0.317837    0.268304     0.007504
AU667   AU        0.363302    0.352854    0.236364     0.007504
AU668   AU        0.395424    0.317876    0.238458     0.007504
AU669   AU        0.396139    0.353160    0.271377     0.007504
AU670   AU        0.432129    0.315823    0.272157     0.007504
AU671   AU        0.428091    0.352112    0.236283     0.007504
PD672   PD        0.466028    0.317919    0.239657     0.005394
AU673   AU        0.465412    0.350747    0.273381     0.007504
AU674   AU        0.499050    0.313419    0.271752     0.007504
AU675   AU        0.501607    0.350698    0.240835     0.007504
AU676   AU        0.533411    0.313202    0.240369     0.007504
AU677   AU        0.533119    0.350992    0.273145     0.007504
AU678   AU        0.564606    0.314995    0.271723     0.007504
AU679   AU        0.565530    0.354128    0.239232     0.007504
PD680   PD        0.601085    0.315349    0.240736     0.005394
AU681   AU        0.597095    0.353336    0.270804     0.007504
AU682   AU        0.632438    0.316462    0.273843     0.007504
PD683   PD        0.629969    0.350506    0.241573     0.005394
PD684   PD        0.663609    0.316563    0.240835     0.005394
PD685   PD        0.665386    0.353859    0.272301     0.005394
PD686   PD        0.700499    0.315941    0.273554     0.005394
PD687   PD        0.700314    0.356231    0.241598     0.005394
PD688   PD        0.728088    0.318406    0.238015     0.005394
PD689   PD        0.731734    0.355526    0.273797     0.005394
PD690   PD        0.761501    0.319543    0.272343     0.005394
PD691   PD        0.764423    0.353249    0.241746     0.005394
PD692   PD        0.795465    0.350384    0.272891     0.005394
PD693   PD        0.097473    0.391073    0.273048     0.005394
PD694   PD        0.129023    0.388417    0.240323     0.005394
PD695   PD        0.128862    0.424373    0.270127     0.005394
PD696   PD        0.164654    0.391570    0.268378     0.005394
PD697   PD        0.164063    0.423947    0.239630     0.005394
PD698   PD        0.196420    0.389186    0.237242     0.005394
AU699   AU        0.198324    0.426204    0.269895     0.007504
PD700   PD        0.229805    0.389047    0.271662     0.005394
AU701   AU        0.229699    0.425945    0.238495     0.007504
AU702   AU        0.264409    0.391305    0.238145     0.007504
AU703   AU        0.263654    0.427804    0.270127     0.007504
AU704   AU        0.297087    0.387436    0.271652     0.007504
PD705   PD        0.296455    0.423997    0.239821     0.005394
AU706   AU        0.329641    0.388341    0.238160     0.007504
AU707   AU        0.329588    0.425766    0.269156     0.007504
AU708   AU        0.361945    0.388691    0.268490     0.007504
AU709   AU        0.362240    0.427638    0.237260     0.007504
AU710   AU        0.394548    0.388841    0.237782     0.007504
AU711   AU        0.395790    0.424981    0.271910     0.007504
AU712   AU        0.429051    0.387358    0.270008     0.007504
AU713   AU        0.429438    0.423543    0.239846     0.007504
PD714   PD        0.461838    0.388117    0.239064     0.005394
AU715   AU        0.463020    0.424652    0.272429     0.007504
AU716   AU        0.496801    0.387417    0.272912     0.007504
PD717   PD        0.501011    0.424329    0.242026     0.005394
AU718   AU        0.534217    0.387044    0.237180     0.007504
AU719   AU        0.536042    0.427300    0.267983     0.007504
AU720   AU        0.565657    0.388590    0.273269     0.007504
AU721   AU        0.568411    0.425660    0.235852     0.007504
AU722   AU        0.599559    0.391124    0.240258     0.007504
AU723   AU        0.598273    0.424605    0.271189     0.007504
AU724   AU        0.631410    0.389371    0.269997     0.007504
AU725   AU        0.632429    0.424707    0.237827     0.007504
PD726   PD        0.666860    0.390427    0.240639     0.005394
PD727   PD        0.664770    0.426949    0.273163     0.005394
PD728   PD        0.701036    0.390905    0.274449     0.005394
PD729   PD        0.696993    0.426991    0.238510     0.005394
PD730   PD        0.730425    0.391220    0.238503     0.005394
PD731   PD        0.730774    0.427029    0.271268     0.005394
AU732   AU        0.763224    0.389595    0.272128     0.007504
PD733   PD        0.762773    0.425414    0.240182     0.005394
PD734   PD        0.796577    0.387859    0.242775     0.005394
PD735   PD        0.796589    0.425707    0.272599     0.005394
PD736   PD        0.828990    0.389414    0.275373     0.005394
PD737   PD        0.065307    0.429770    0.264091     0.005394
PD738   PD        0.134947    0.461243    0.236930     0.005394
AU739   AU        0.132533    0.497929    0.270632     0.007504
AU740   AU        0.163627    0.462183    0.272159     0.007504
AU741   AU        0.165099    0.498620    0.237965     0.007504
AU742   AU        0.195345    0.460417    0.238507     0.007504
AU743   AU        0.197180    0.497470    0.270096     0.007504
AU744   AU        0.229912    0.461944    0.269337     0.007504
AU745   AU        0.229847    0.497739    0.235976     0.007504
AU746   AU        0.263059    0.464012    0.237131     0.007504
AU747   AU        0.261560    0.498084    0.270176     0.007504
AU748   AU        0.296824    0.460933    0.269827     0.007504
AU749   AU        0.296128    0.496416    0.238353     0.007504
AU750   AU        0.330840    0.462118    0.235867     0.007504
AU751   AU        0.329200    0.497034    0.269513     0.007504
AU752   AU        0.363613    0.461789    0.272307     0.007504
AU753   AU        0.362325    0.499152    0.236090     0.007504
AU754   AU        0.395201    0.461427    0.236479     0.007504
AU755   AU        0.397460    0.496748    0.270557     0.007504
AU756   AU        0.429490    0.460998    0.272587     0.007504
AU757   AU        0.430433    0.496732    0.237602     0.007504
AU758   AU        0.464448    0.459852    0.238797     0.007504
AU759   AU        0.464228    0.498463    0.269100     0.007504
AU760   AU        0.498939    0.462788    0.271850     0.007504
AU761   AU        0.496985    0.498484    0.237744     0.007504
AU762   AU        0.532192    0.461495    0.236559     0.007504
AU763   AU        0.530146    0.497765    0.271779     0.007504
AU764   AU        0.566284    0.461327    0.270103     0.007504
AU765   AU        0.566347    0.499785    0.236824     0.007504
AU766   AU        0.600043    0.463558    0.237217     0.007504
AU767   AU        0.596628    0.497291    0.269109     0.007504
AU768   AU        0.631831    0.462453    0.270837     0.007504
AU769   AU        0.632256    0.498972    0.235997     0.007504
AU770   AU        0.663628    0.462938    0.237063     0.007504
AU771   AU        0.664095    0.496885    0.270721     0.007504
AU772   AU        0.698688    0.461339    0.272498     0.007504
AU773   AU        0.698360    0.499449    0.237530     0.007504
AU774   AU        0.729575    0.461835    0.239787     0.007504
AU775   AU        0.730244    0.495454    0.273721     0.007504
PD776   PD        0.764526    0.459231    0.270682     0.005394
AU777   AU        0.762577    0.497372    0.240833     0.007504
PD778   PD        0.795538    0.459504    0.241705     0.005394
PD779   PD        0.793866    0.497734    0.271951     0.005394
PD780   PD        0.830139    0.497874    0.245252     0.005394
PD781   PD        0.097949    0.531809    0.272587     0.005394
PD782   PD        0.132261    0.532973    0.237869     0.005394
PD783   PD        0.131455    0.569548    0.273212     0.005394
AU784   AU        0.164978    0.533410    0.270641     0.007504
PD785   PD        0.165605    0.566530    0.238111     0.005394
PD786   PD        0.197263    0.534005    0.238066     0.005394
AU787   AU        0.195576    0.569158    0.269104     0.007504
AU788   AU        0.228153    0.534744    0.270547     0.007504
AU789   AU        0.230484    0.570412    0.237150     0.007504
AU790   AU        0.261839    0.534422    0.236996     0.007504
AU791   AU        0.262632    0.568708    0.271404     0.007504
AU792   AU        0.294405    0.534561    0.270252     0.007504
AU793   AU        0.293445    0.569689    0.237853     0.007504
AU794   AU        0.329578    0.533366    0.237429     0.007504
AU795   AU        0.330392    0.570049    0.270086     0.007504
AU796   AU        0.362502    0.532927    0.271126     0.007504
AU797   AU        0.362486    0.568844    0.238798     0.007504
AU798   AU        0.398160    0.531676    0.239197     0.007504
AU799   AU        0.394483    0.567897    0.270798     0.007504
AU800   AU        0.430659    0.535824    0.270915     0.007504
AU801   AU        0.429664    0.570247    0.237422     0.007504
AU802   AU        0.462796    0.536163    0.237610     0.007504
AU803   AU        0.465686    0.570572    0.269754     0.007504
AU804   AU        0.497808    0.535856    0.268908     0.007504
AU805   AU        0.500266    0.570285    0.235735     0.007504
AU806   AU        0.531287    0.532318    0.233988     0.007504
AU807   AU        0.531391    0.569246    0.270095     0.007504
AU808   AU        0.564153    0.532707    0.269328     0.007504
AU809   AU        0.565698    0.568062    0.236989     0.007504
AU810   AU        0.597550    0.531979    0.236901     0.007504
AU811   AU        0.597200    0.569276    0.270344     0.007504
PD812   PD        0.630696    0.531351    0.270504     0.005394
PD813   PD        0.629565    0.571317    0.235917     0.005394
AU814   AU        0.662989    0.533743    0.236998     0.007504
PD815   PD        0.661990    0.571153    0.270761     0.005394
PD816   PD        0.695783    0.531998    0.270761     0.005394
PD817   PD        0.697969    0.567344    0.237701     0.005394
AU818   AU        0.730189    0.533162    0.239506     0.007504
PD819   PD        0.728492    0.568555    0.275173     0.005394
PD820   PD        0.764854    0.535490    0.271635     0.005394
PD821   PD        0.765308    0.570167    0.237626     0.005394
PD822   PD        0.795487    0.531846    0.239029     0.005394
PD823   PD        0.798623    0.572279    0.270434     0.005394
PD824   PD        0.829885    0.535336    0.275349     0.005394
PD825   PD        0.134139    0.642944    0.272047     0.005394
AU826   AU        0.163645    0.604675    0.272877     0.007504
AU827   AU        0.163813    0.640494    0.239957     0.007504
AU828   AU        0.195715    0.606249    0.238254     0.007504
AU829   AU        0.197351    0.638829    0.271009     0.007504
AU830   AU        0.229489    0.604220    0.270517     0.007504
AU831   AU        0.229493    0.639612    0.238586     0.007504
AU832   AU        0.262178    0.605177    0.238753     0.007504
AU833   AU        0.262020    0.638936    0.270502     0.007504
AU834   AU        0.295980    0.604480    0.269241     0.007504
AU835   AU        0.296311    0.642675    0.236998     0.007504
AU836   AU        0.329495    0.608516    0.238373     0.007504
AU837   AU        0.330529    0.642678    0.271263     0.007504
AU838   AU        0.363097    0.605708    0.269803     0.007504
AU839   AU        0.363218    0.642540    0.236939     0.007504
AU840   AU        0.396459    0.606653    0.239254     0.007504
AU841   AU        0.395187    0.641927    0.270368     0.007504
AU842   AU        0.430820    0.606872    0.270891     0.007504
AU843   AU        0.431055    0.642591    0.237693     0.007504
PD844   PD        0.465141    0.605998    0.237513     0.005394
AU845   AU        0.463600    0.641525    0.270374     0.007504
AU846   AU        0.498438    0.606583    0.270066     0.007504
AU847   AU        0.498223    0.641873    0.236241     0.007504
AU848   AU        0.533643    0.604429    0.238190     0.007504
AU849   AU        0.532417    0.641040    0.269551     0.007504
AU850   AU        0.564175    0.604921    0.271133     0.007504
AU851   AU        0.561824    0.642983    0.235964     0.007504
AU852   AU        0.596574    0.605237    0.236785     0.007504
PD853   PD        0.597701    0.642643    0.270616     0.005394
PD854   PD        0.630391    0.605055    0.267141     0.005394
AU855   AU        0.630804    0.641223    0.235084     0.007504
PD856   PD        0.663366    0.608516    0.236083     0.005394
AU857   AU        0.666149    0.642662    0.272480     0.007504
AU858   AU        0.698586    0.605536    0.272802     0.007504
PD859   PD        0.698065    0.640348    0.240032     0.005394
PD860   PD        0.732302    0.605806    0.239775     0.005394
PD861   PD        0.733147    0.643139    0.271149     0.005394
PD862   PD        0.764698    0.604992    0.270339     0.005394
PD863   PD        0.795241    0.681907    0.240794     0.005394
PD864   PD        0.799782    0.644937    0.270385     0.005394
PD865   PD        0.165805    0.678656    0.272524     0.005394
PD866   PD        0.199169    0.676264    0.237396     0.005394
PD867   PD        0.199091    0.708815    0.273357     0.005394
PD868   PD        0.230765    0.676718    0.269062     0.005394
PD869   PD        0.231054    0.711900    0.238801     0.005394
AU870   AU        0.262042    0.674495    0.237369     0.007504
PD871   PD        0.263920    0.711836    0.271628     0.005394
PD872   PD        0.294900    0.673186    0.271282     0.005394
AU873   AU        0.294721    0.708954    0.237809     0.007504
PD874   PD        0.329769    0.676350    0.235741     0.005394
PD875   PD        0.329195    0.710652    0.270047     0.005394
AU876   AU        0.363880    0.678402    0.268676     0.007504
PD877   PD        0.363644    0.711136    0.237798     0.005394
AU878   AU        0.396929    0.677466    0.237102     0.007504
AU879   AU        0.396182    0.712161    0.272027     0.007504
AU880   AU        0.430891    0.676706    0.272802     0.007504
AU881   AU        0.429478    0.711563    0.239667     0.007504
AU882   AU        0.464073    0.676929    0.238246     0.007504
AU883   AU        0.463021    0.713583    0.271782     0.007504
AU884   AU        0.497674    0.678547    0.270890     0.007504
AU885   AU        0.496612    0.713710    0.237194     0.007504
AU886   AU        0.529043    0.676987    0.237414     0.007504
AU887   AU        0.532259    0.713675    0.268865     0.007504
AU888   AU        0.563351    0.677867    0.271180     0.007504
AU889   AU        0.564320    0.712871    0.235208     0.007504
PD890   PD        0.599090    0.677471    0.235205     0.005394
PD891   PD        0.594593    0.715159    0.269673     0.005394
PD892   PD        0.629759    0.678447    0.269182     0.005394
PD893   PD        0.628073    0.712536    0.236130     0.005394
PD894   PD        0.663867    0.678039    0.236652     0.005394
PD895   PD        0.662433    0.710802    0.268622     0.005394
PD896   PD        0.699121    0.677230    0.271028     0.005394
AU897   AU        0.695419    0.713698    0.239395     0.007504
PD898   PD        0.730077    0.678820    0.238147     0.005394
PD899   PD        0.732636    0.711181    0.270511     0.005394
PD900   PD        0.764090    0.677824    0.273930     0.005394
PD901   PD        0.227347    0.748712    0.270041     0.005394
PD902   PD        0.264623    0.744651    0.238237     0.005394
PD903   PD        0.231070    0.819393    0.274347     0.005394
PD904   PD        0.297573    0.747528    0.272704     0.005394
PD905   PD        0.297681    0.783082    0.241224     0.005394
PD906   PD        0.328200    0.746536    0.235734     0.005394
PD907   PD        0.331983    0.783119    0.271737     0.005394
AU908   AU        0.363919    0.746853    0.270067     0.007504
PD909   PD        0.364494    0.782664    0.237548     0.005394
AU910   AU        0.397323    0.747598    0.239433     0.007504
AU911   AU        0.394378    0.784273    0.271720     0.007504
AU912   AU        0.428639    0.748279    0.271606     0.007504
PD913   PD        0.429465    0.782072    0.235882     0.005394
PD914   PD        0.461533    0.747978    0.237615     0.005394
AU915   AU        0.463755    0.785135    0.271123     0.007504
PD916   PD        0.496553    0.748487    0.271043     0.005394
PD917   PD        0.496504    0.781219    0.239611     0.005394
AU918   AU        0.529725    0.748835    0.238612     0.007504
PD919   PD        0.531721    0.783605    0.272932     0.005394
AU920   AU        0.562596    0.749738    0.270772     0.007504
PD921   PD        0.565705    0.782268    0.234481     0.005394
PD922   PD        0.594820    0.748162    0.236981     0.005394
PD923   PD        0.595096    0.784064    0.270737     0.005394
PD924   PD        0.630321    0.744549    0.267942     0.005394
PD925   PD        0.639052    0.814729    0.203243     0.005394
PD926   PD        0.664125    0.748264    0.240717     0.005394
PD927   PD        0.661774    0.782425    0.273988     0.005394
PD928   PD        0.696638    0.747866    0.272848     0.005394
PD929   PD        0.295350    0.819305    0.272899     0.005394
PD930   PD        0.359508    0.816532    0.272527     0.005394
PD931   PD        0.398281    0.817203    0.235725     0.005394
PD932   PD        0.368511    0.853891    0.233947     0.005394
AU933   AU        0.428516    0.815584    0.270527     0.007504
PD934   PD        0.464143    0.816785    0.238611     0.005394
PD935   PD        0.463750    0.850640    0.268909     0.005394
PD936   PD        0.497700    0.817849    0.271327     0.005394
PD937   PD        0.527209    0.853570    0.208612     0.005394
PD938   PD        0.495147    0.852149    0.236874     0.005394
PD939   PD        0.566822    0.817859    0.267897     0.005394
PD940   PD        0.630235    0.820396    0.271482     0.005394
PD941   PD        0.330778    0.038780    0.304935     0.005394
PD942   PD        0.365259    0.070263    0.305443     0.005394
PD943   PD        0.397775    0.069281    0.337939     0.005394
PD944   PD        0.429093    0.070262    0.305361     0.005394
PD945   PD        0.465824    0.069022    0.341743     0.005394
PD946   PD        0.498935    0.068172    0.306002     0.005394
PD947   PD        0.534027    0.072434    0.339398     0.005394
PD948   PD        0.563370    0.066834    0.240314     0.005394
PD949   PD        0.597226    0.071476    0.340487     0.005394
PD950   PD        0.232154    0.140718    0.306194     0.005394
PD951   PD        0.264333    0.141757    0.337801     0.005394
PD952   PD        0.298197    0.106294    0.338024     0.005394
AU953   AU        0.298945    0.138981    0.303330     0.007504
PD954   PD        0.332271    0.102325    0.305159     0.005394
AU955   AU        0.331117    0.138014    0.337411     0.007504
AU956   AU        0.363302    0.104947    0.338242     0.007504
AU957   AU        0.364391    0.140837    0.306479     0.007504
PD958   PD        0.397889    0.104871    0.305523     0.005394
AU959   AU        0.396771    0.139575    0.338683     0.007504
AU960   AU        0.431477    0.103724    0.338387     0.007504
AU961   AU        0.431850    0.136054    0.306525     0.007504
PD962   PD        0.464102    0.102101    0.307703     0.005394
PD963   PD        0.466850    0.137825    0.338888     0.005394
PD964   PD        0.499622    0.104607    0.339132     0.005394
PD965   PD        0.499357    0.141640    0.306524     0.005394
AU966   AU        0.531399    0.106273    0.307470     0.007504
AU967   AU        0.532772    0.141276    0.339094     0.007504
PD968   PD        0.564797    0.105120    0.342366     0.005394
AU969   AU        0.564088    0.138066    0.306882     0.007504
PD970   PD        0.600627    0.104034    0.304602     0.005394
AU971   AU        0.597451    0.140570    0.339764     0.007504
PD972   PD        0.630818    0.106747    0.341765     0.005394
PD973   PD        0.632650    0.140948    0.307512     0.005394
PD974   PD        0.664851    0.140943    0.341064     0.005394
PD975   PD        0.695853    0.140347    0.308038     0.005394
PD976   PD        0.164596    0.213764    0.306299     0.005394
PD977   PD        0.199903    0.177149    0.306084     0.005394
PD978   PD        0.198482    0.211882    0.337489     0.005394
PD979   PD        0.232437    0.176406    0.340087     0.005394
AU980   AU        0.231507    0.211712    0.303833     0.007504
AU981   AU        0.264652    0.175746    0.303954     0.007504
AU982   AU        0.264261    0.209324    0.337086     0.007504
AU983   AU        0.297251    0.172759    0.337907     0.007504
AU984   AU        0.296322    0.209708    0.304884     0.007504
AU985   AU        0.329141    0.174143    0.306234     0.007504
AU986   AU        0.328303    0.209867    0.336511     0.007504
AU987   AU        0.363423    0.175706    0.337167     0.007504
AU988   AU        0.364007    0.207466    0.304029     0.007504
PD989   PD        0.399417    0.174381    0.305824     0.005394
AU990   AU        0.399118    0.208067    0.337106     0.007504
PD991   PD        0.431252    0.173020    0.336986     0.005394
AU992   AU        0.432395    0.209371    0.303974     0.007504
AU993   AU        0.463537    0.172474    0.306917     0.007504
AU994   AU        0.464087    0.208498    0.337705     0.007504
PD995   PD        0.498722    0.173967    0.339017     0.005394
PD996   PD        0.497900    0.211804    0.305414     0.005394
AU997   AU        0.534257    0.174005    0.305536     0.007504
AU998   AU        0.533798    0.209222    0.337367     0.007504
AU999   AU        0.564830    0.174906    0.338634     0.007504
AU1000   AU        0.566255    0.210122    0.306027     0.007504
AU1001   AU        0.598959    0.174210    0.305068     0.007504
AU1002   AU        0.598534    0.208999    0.338741     0.007504
PD1003   PD        0.632996    0.176563    0.340987     0.005394
AU1004   AU        0.630887    0.208990    0.304496     0.007504
PD1005   PD        0.663772    0.174032    0.305664     0.005394
AU1006   AU        0.666759    0.208990    0.338517     0.007504
AU1007   AU        0.697180    0.176191    0.339917     0.007504
AU1008   AU        0.696144    0.209205    0.306794     0.007504
PD1009   PD        0.727914    0.173340    0.306987     0.005394
AU1010   AU        0.729572    0.209521    0.339455     0.007504
PD1011   PD        0.760622    0.211548    0.305069     0.005394
PD1012   PD        0.134317    0.283786    0.339875     0.005394
PD1013   PD        0.163969    0.246036    0.334802     0.005394
PD1014   PD        0.166507    0.282081    0.303541     0.005394
PD1015   PD        0.198801    0.244933    0.304456     0.005394
AU1016   AU        0.199174    0.280321    0.335052     0.007504
AU1017   AU        0.231662    0.244811    0.338189     0.007504
AU1018   AU        0.231385    0.281072    0.304353     0.007504
AU1019   AU        0.264116    0.244568    0.303637     0.007504
AU1020   AU        0.264049    0.278840    0.337519     0.007504
AU1021   AU        0.295754    0.245982    0.337441     0.007504
AU1022   AU        0.295265    0.282540    0.302687     0.007504
AU1023   AU        0.330701    0.243599    0.304697     0.007504
AU1024   AU        0.328202    0.279962    0.334410     0.007504
AU1025   AU        0.362547    0.243757    0.335991     0.007504
AU1026   AU        0.362318    0.280924    0.303122     0.007504
AU1027   AU        0.396866    0.244976    0.306275     0.007504
AU1028   AU        0.396599    0.280237    0.337548     0.007504
AU1029   AU        0.430960    0.245604    0.337840     0.007504
AU1030   AU        0.430493    0.279562    0.303339     0.007504
AU1031   AU        0.465176    0.245392    0.305606     0.007504
AU1032   AU        0.464775    0.280705    0.337663     0.007504
AU1033   AU        0.496239    0.242811    0.338006     0.007504
AU1034   AU        0.499204    0.279174    0.304624     0.007504
AU1035   AU        0.532003    0.241849    0.304796     0.007504
AU1036   AU        0.532523    0.279841    0.338187     0.007504
AU1037   AU        0.567126    0.244472    0.339518     0.007504
AU1038   AU        0.565556    0.281416    0.305097     0.007504
AU1039   AU        0.600715    0.244071    0.305711     0.007504
AU1040   AU        0.597991    0.280034    0.338612     0.007504
AU1041   AU        0.630407    0.244390    0.338006     0.007504
AU1042   AU        0.634567    0.280182    0.305866     0.007504
AU1043   AU        0.663771    0.243268    0.304822     0.007504
AU1044   AU        0.666920    0.281440    0.338923     0.007504
AU1045   AU        0.697732    0.243327    0.339014     0.007504
PD1046   PD        0.699440    0.279267    0.305476     0.005394
PD1047   PD        0.731468    0.245013    0.307563     0.005394
PD1048   PD        0.731028    0.278841    0.337176     0.005394
PD1049   PD        0.764581    0.241470    0.339605     0.005394
PD1050   PD        0.765341    0.283250    0.305546     0.005394
PD1051   PD        0.794921    0.280717    0.337892     0.005394
PD1052   PD        0.100699    0.319079    0.342165     0.005394
PD1053   PD        0.094315    0.349976    0.306556     0.005394
PD1054   PD        0.133125    0.317071    0.302401     0.005394
PD1055   PD        0.133872    0.350878    0.335153     0.005394
PD1056   PD        0.166752    0.316261    0.338559     0.005394
PD1057   PD        0.165003    0.354284    0.303843     0.005394
AU1058   AU        0.197548    0.317737    0.303950     0.007504
AU1059   AU        0.199592    0.351522    0.336440     0.007504
AU1060   AU        0.231909    0.315109    0.337881     0.007504
AU1061   AU        0.230054    0.351972    0.301941     0.007504
AU1062   AU        0.263209    0.318176    0.303910     0.007504
AU1063   AU        0.262618    0.352163    0.336844     0.007504
AU1064   AU        0.295138    0.315580    0.337023     0.007504
AU1065   AU        0.296827    0.351318    0.304262     0.007504
AU1066   AU        0.330079    0.316771    0.302022     0.007504
AU1067   AU        0.330427    0.351064    0.336812     0.007504
AU1068   AU        0.362189    0.315194    0.337066     0.007504
AU1069   AU        0.363508    0.351619    0.304389     0.007504
AU1070   AU        0.395839    0.317315    0.303644     0.007504
AU1071   AU        0.396620    0.351853    0.336330     0.007504
AU1072   AU        0.431383    0.315919    0.336782     0.007504
AU1073   AU        0.430022    0.352429    0.302188     0.007504
AU1074   AU        0.466007    0.315490    0.304603     0.007504
AU1075   AU        0.463083    0.351927    0.338855     0.007504
AU1076   AU        0.498691    0.315770    0.338085     0.007504
AU1077   AU        0.498970    0.350955    0.306172     0.007504
AU1078   AU        0.531929    0.315648    0.305867     0.007504
AU1079   AU        0.532803    0.355018    0.336862     0.007504
AU1080   AU        0.566358    0.318325    0.339855     0.007504
AU1081   AU        0.566295    0.353646    0.305313     0.007504
AU1082   AU        0.600563    0.316493    0.305372     0.007504
AU1083   AU        0.600021    0.352480    0.338132     0.007504
PD1084   PD        0.632639    0.316819    0.335482     0.005394
AU1085   AU        0.634573    0.355020    0.302855     0.007504
AU1086   AU        0.664875    0.315668    0.303902     0.007504
AU1087   AU        0.665158    0.353580    0.339379     0.007504
PD1088   PD        0.699862    0.318922    0.335105     0.005394
PD1089   PD        0.698519    0.354888    0.305051     0.005394
PD1090   PD        0.734620    0.318454    0.304709     0.005394
PD1091   PD        0.732639    0.356799    0.337402     0.005394
PD1092   PD        0.763334    0.318114    0.340801     0.005394
PD1093   PD        0.766836    0.353862    0.308649     0.005394
PD1094   PD        0.795802    0.318560    0.305268     0.005394
AU1095   AU        0.797431    0.355295    0.339144     0.007504
PD1096   PD        0.833308    0.323685    0.341083     0.005394
PD1097   PD        0.827929    0.353993    0.305786     0.005394
PD1098   PD        0.098147    0.390002    0.339441     0.005394
PD1099   PD        0.095934    0.425671    0.302569     0.005394
AU1100   AU        0.132059    0.390290    0.303633     0.007504
PD1101   PD        0.130628    0.424147    0.338194     0.005394
PD1102   PD        0.162892    0.386571    0.336034     0.005394
PD1103   PD        0.163725    0.425536    0.301102     0.005394
PD1104   PD        0.197596    0.388018    0.302036     0.005394
PD1105   PD        0.197003    0.427115    0.336524     0.005394
PD1106   PD        0.231295    0.386704    0.336216     0.005394
PD1107   PD        0.229708    0.426035    0.304578     0.005394
AU1108   AU        0.264390    0.388988    0.304519     0.007504
AU1109   AU        0.264397    0.426034    0.337042     0.007504
AU1110   AU        0.295956    0.387222    0.337649     0.007504
AU1111   AU        0.297441    0.424445    0.303482     0.007504
AU1112   AU        0.330134    0.387936    0.304660     0.007504
PD1113   PD        0.329798    0.424485    0.338582     0.005394
AU1114   AU        0.363621    0.387439    0.337586     0.007504
AU1115   AU        0.362069    0.425666    0.303875     0.007504
AU1116   AU        0.395591    0.389723    0.303687     0.007504
AU1117   AU        0.396983    0.424071    0.336300     0.007504
AU1118   AU        0.428789    0.390379    0.336718     0.007504
AU1119   AU        0.430320    0.423934    0.304143     0.007504
AU1120   AU        0.464662    0.386595    0.304976     0.007504
AU1121   AU        0.466254    0.424324    0.335754     0.007504
AU1122   AU        0.499132    0.389912    0.335801     0.007504
AU1123   AU        0.498524    0.426453    0.302591     0.007504
AU1124   AU        0.532873    0.389915    0.302558     0.007504
AU1125   AU        0.533352    0.425050    0.338101     0.007504
AU1126   AU        0.567652    0.389107    0.336714     0.007504
AU1127   AU        0.567539    0.425252    0.303457     0.007504
AU1128   AU        0.598929    0.387754    0.303784     0.007504
AU1129   AU        0.599822    0.426191    0.337597     0.007504
AU1130   AU        0.632710    0.390291    0.338443     0.007504
AU1131   AU        0.631275    0.425277    0.304448     0.007504
AU1132   AU        0.665810    0.390442    0.305117     0.007504
AU1133   AU        0.664587    0.426361    0.336476     0.007504
AU1134   AU        0.696431    0.390990    0.340731     0.007504
AU1135   AU        0.697702    0.426614    0.305867     0.007504
AU1136   AU        0.730478    0.391832    0.307949     0.007504
AU1137   AU        0.730562    0.425586    0.339122     0.007504
AU1138   AU        0.764405    0.390793    0.340235     0.007504
PD1139   PD        0.764134    0.424928    0.303994     0.005394
PD1140   PD        0.795340    0.390445    0.307068     0.005394
AU1141   AU        0.796024    0.425462    0.339120     0.007504
PD1142   PD        0.829625    0.390131    0.338683     0.005394
PD1143   PD        0.827312    0.422181    0.303893     0.005394
PD1144   PD        0.098025    0.460117    0.334064     0.005394
PD1145   PD        0.101156    0.497124    0.303836     0.005394
PD1146   PD        0.132464    0.462167    0.304899     0.005394
AU1147   AU        0.130266    0.498782    0.337729     0.007504
PD1148   PD        0.164745    0.464273    0.338608     0.005394
AU1149   AU        0.163849    0.497784    0.305208     0.007504
PD1150   PD        0.195671    0.463783    0.304293     0.005394
AU1151   AU        0.196242    0.498209    0.336242     0.007504
AU1152   AU        0.228664    0.462820    0.335584     0.007504
AU1153   AU        0.227598    0.497779    0.301881     0.007504
AU1154   AU        0.261814    0.460631    0.303692     0.007504
AU1155   AU        0.263215    0.497033    0.338401     0.007504
AU1156   AU        0.295574    0.461463    0.335394     0.007504
AU1157   AU        0.296066    0.497987    0.302545     0.007504
AU1158   AU        0.330015    0.461933    0.303456     0.007504
AU1159   AU        0.327817    0.496375    0.336585     0.007504
AU1160   AU        0.361367    0.461825    0.337283     0.007504
AU1161   AU        0.363362    0.497441    0.305025     0.007504
AU1162   AU        0.398166    0.463376    0.305347     0.007504
AU1163   AU        0.395862    0.497076    0.336536     0.007504
AU1164   AU        0.431878    0.463600    0.337674     0.007504
AU1165   AU        0.431120    0.499349    0.302080     0.007504
AU1166   AU        0.464346    0.462464    0.305016     0.007504
AU1167   AU        0.466356    0.499232    0.337153     0.007504
AU1168   AU        0.496329    0.460308    0.337763     0.007504
AU1169   AU        0.497331    0.500415    0.302555     0.007504
AU1170   AU        0.533591    0.459407    0.303776     0.007504
AU1171   AU        0.530628    0.496761    0.337711     0.007504
AU1172   AU        0.564600    0.463228    0.337675     0.007504
AU1173   AU        0.563985    0.498996    0.304862     0.007504
AU1174   AU        0.599584    0.462100    0.303621     0.007504
AU1175   AU        0.597443    0.498093    0.339102     0.007504
AU1176   AU        0.633521    0.462931    0.337715     0.007504
AU1177   AU        0.631317    0.497504    0.304187     0.007504
AU1178   AU        0.666045    0.462531    0.303959     0.007504
AU1179   AU        0.664696    0.497720    0.339457     0.007504
AU1180   AU        0.698245    0.461379    0.338055     0.007504
AU1181   AU        0.698808    0.496184    0.306129     0.007504
AU1182   AU        0.730504    0.459258    0.303551     0.007504
PD1183   PD        0.731992    0.495674    0.338155     0.005394
AU1184   AU        0.762187    0.459319    0.337424     0.007504
PD1185   PD        0.765953    0.495157    0.303080     0.005394
PD1186   PD        0.795981    0.459235    0.304594     0.005394
PD1187   PD        0.797720    0.496195    0.336563     0.005394
PD1188   PD        0.827481    0.461374    0.337443     0.005394
PD1189   PD        0.828650    0.494457    0.304394     0.005394
PD1190   PD        0.099841    0.533383    0.338436     0.005394
PD1191   PD        0.098891    0.568114    0.304088     0.005394
AU1192   AU        0.132051    0.532002    0.303099     0.007504
PD1193   PD        0.133303    0.568480    0.339528     0.005394
AU1194   AU        0.162910    0.533107    0.336979     0.007504
PD1195   PD        0.161437    0.568147    0.303787     0.005394
AU1196   AU        0.195995    0.533955    0.303783     0.007504
AU1197   AU        0.196223    0.566078    0.337004     0.007504
PD1198   PD        0.228353    0.531887    0.336496     0.005394
AU1199   AU        0.228312    0.569204    0.303909     0.007504
AU1200   AU        0.263383    0.531709    0.303666     0.007504
AU1201   AU        0.264787    0.570064    0.338176     0.007504
AU1202   AU        0.296655    0.532073    0.336666     0.007504
AU1203   AU        0.296634    0.568699    0.304863     0.007504
AU1204   AU        0.328308    0.534889    0.303256     0.007504
AU1205   AU        0.331254    0.569977    0.337755     0.007504
AU1206   AU        0.363362    0.532080    0.337260     0.007504
AU1207   AU        0.361725    0.569312    0.302211     0.007504
AU1208   AU        0.395660    0.534396    0.302970     0.007504
AU1209   AU        0.395595    0.569291    0.337477     0.007504
AU1210   AU        0.431766    0.532424    0.336857     0.007504
AU1211   AU        0.430556    0.569622    0.302223     0.007504
AU1212   AU        0.465122    0.534612    0.304308     0.007504
AU1213   AU        0.463653    0.569018    0.337248     0.007504
AU1214   AU        0.498251    0.534829    0.337565     0.007504
AU1215   AU        0.497207    0.570657    0.301969     0.007504
AU1216   AU        0.531271    0.535560    0.303548     0.007504
AU1217   AU        0.530375    0.569396    0.336665     0.007504
AU1218   AU        0.564288    0.532445    0.338092     0.007504
AU1219   AU        0.566194    0.571192    0.302972     0.007504
AU1220   AU        0.596138    0.533240    0.304919     0.007504
AU1221   AU        0.597053    0.568219    0.336800     0.007504
AU1222   AU        0.631200    0.533453    0.337735     0.007504
PD1223   PD        0.629607    0.569946    0.303236     0.005394
PD1224   PD        0.663841    0.532564    0.304241     0.005394
PD1225   PD        0.667298    0.570420    0.341712     0.005394
AU1226   AU        0.696806    0.532005    0.337778     0.007504
PD1227   PD        0.700372    0.569439    0.303730     0.005394
PD1228   PD        0.733264    0.533318    0.304485     0.005394
PD1229   PD        0.732545    0.568829    0.339062     0.005394
PD1230   PD        0.766805    0.529085    0.338731     0.005394
PD1231   PD        0.763336    0.569466    0.305156     0.005394
PD1232   PD        0.796634    0.532889    0.305365     0.005394
PD1233   PD        0.796787    0.570521    0.337746     0.005394
PD1234   PD        0.828891    0.534053    0.338213     0.005394
PD1235   PD        0.878749    0.569128    0.289050     0.005394
PD1236   PD        0.100617    0.602077    0.339470     0.005394
PD1237   PD        0.131008    0.602101    0.307068     0.005394
PD1238   PD        0.132211    0.636297    0.337449     0.005394
PD1239   PD        0.163982    0.603597    0.340216     0.005394
PD1240   PD        0.163531    0.639402    0.303487     0.005394
AU1241   AU        0.195263    0.603173    0.304586     0.007504
PD1242   PD        0.199010    0.639865    0.337542     0.005394
AU1243   AU        0.228120    0.604056    0.337846     0.007504
PD1244   PD        0.230184    0.639262    0.302890     0.005394
AU1245   AU        0.261335    0.603497    0.302647     0.007504
AU1246   AU        0.263596    0.640970    0.338225     0.007504
AU1247   AU        0.297748    0.604234    0.338430     0.007504
AU1248   AU        0.297635    0.637931    0.302779     0.007504
AU1249   AU        0.328401    0.604732    0.302674     0.007504
AU1250   AU        0.329044    0.641360    0.336567     0.007504
AU1251   AU        0.363650    0.606675    0.335651     0.007504
AU1252   AU        0.363455    0.641081    0.303138     0.007504
AU1253   AU        0.396801    0.606588    0.301833     0.007504
AU1254   AU        0.397463    0.641640    0.337486     0.007504
AU1255   AU        0.432330    0.605705    0.335447     0.007504
AU1256   AU        0.430847    0.639538    0.302630     0.007504
AU1257   AU        0.464204    0.605297    0.302254     0.007504
AU1258   AU        0.462759    0.642687    0.336377     0.007504
AU1259   AU        0.497163    0.604242    0.339465     0.007504
AU1260   AU        0.498349    0.641368    0.301802     0.007504
AU1261   AU        0.528858    0.604151    0.303110     0.007504
AU1262   AU        0.531118    0.640746    0.337353     0.007504
AU1263   AU        0.565650    0.606929    0.340699     0.007504
AU1264   AU        0.562653    0.641155    0.304246     0.007504
PD1265   PD        0.597157    0.608117    0.303443     0.005394
AU1266   AU        0.598902    0.642372    0.338388     0.007504
PD1267   PD        0.630144    0.605919    0.339021     0.005394
PD1268   PD        0.630286    0.642105    0.301957     0.005394
PD1269   PD        0.664457    0.607469    0.303321     0.005394
AU1270   AU        0.665580    0.641900    0.341193     0.007504
AU1271   AU        0.698835    0.607650    0.338668     0.007504
PD1272   PD        0.697877    0.639426    0.305987     0.005394
PD1273   PD        0.732878    0.609809    0.303508     0.005394
AU1274   AU        0.732308    0.643712    0.340010     0.007504
PD1275   PD        0.764313    0.607309    0.339321     0.005394
PD1276   PD        0.764492    0.641975    0.305031     0.005394
PD1277   PD        0.795406    0.608440    0.305642     0.005394
PD1278   PD        0.798023    0.645275    0.339922     0.005394
PD1279   PD        0.826422    0.605171    0.338807     0.005394
PD1280   PD        0.166939    0.674440    0.339962     0.005394
PD1281   PD        0.096716    0.705497    0.283915     0.005394
PD1282   PD        0.199450    0.674012    0.304177     0.005394
PD1283   PD        0.194891    0.710009    0.337824     0.005394
PD1284   PD        0.231512    0.677709    0.339484     0.005394
PD1285   PD        0.231274    0.710080    0.304428     0.005394
PD1286   PD        0.261602    0.674810    0.302962     0.005394
PD1287   PD        0.261133    0.713448    0.336510     0.005394
PD1288   PD        0.296073    0.678048    0.337532     0.005394
PD1289   PD        0.296684    0.711339    0.303793     0.005394
AU1290   AU        0.330950    0.675111    0.303952     0.007504
PD1291   PD        0.329817    0.712585    0.337149     0.005394
AU1292   AU        0.362662    0.675701    0.337398     0.007504
AU1293   AU        0.363093    0.712401    0.303782     0.007504
AU1294   AU        0.396648    0.677021    0.303250     0.007504
AU1295   AU        0.396263    0.714338    0.336146     0.007504
AU1296   AU        0.430174    0.677746    0.336567     0.007504
AU1297   AU        0.428891    0.714685    0.305997     0.007504
AU1298   AU        0.461952    0.678042    0.302644     0.007504
AU1299   AU        0.464613    0.713898    0.336054     0.007504
AU1300   AU        0.497810    0.676125    0.337091     0.007504
AU1301   AU        0.498055    0.715285    0.302919     0.007504
PD1302   PD        0.531066    0.677647    0.302494     0.005394
AU1303   AU        0.530958    0.713181    0.337682     0.007504
AU1304   AU        0.562878    0.676056    0.337829     0.007504
PD1305   PD        0.560401    0.712537    0.304068     0.005394
PD1306   PD        0.594537    0.678060    0.304390     0.005394
PD1307   PD        0.595931    0.715068    0.338736     0.005394
PD1308   PD        0.633008    0.677719    0.340209     0.005394
PD1309   PD        0.628855    0.712149    0.306402     0.005394
PD1310   PD        0.664535    0.676277    0.305396     0.005394
PD1311   PD        0.663045    0.712799    0.341120     0.005394
PD1312   PD        0.696565    0.675693    0.338719     0.005394
PD1313   PD        0.695698    0.711025    0.306153     0.005394
PD1314   PD        0.732160    0.679032    0.307747     0.005394
PD1315   PD        0.727388    0.712443    0.341958     0.005394
PD1316   PD        0.799018    0.710471    0.344348     0.005394
PD1317   PD        0.767082    0.710942    0.306526     0.005394
PD1318   PD        0.198356    0.745671    0.304560     0.005394
PD1319   PD        0.231429    0.748383    0.337798     0.005394
PD1320   PD        0.230582    0.780891    0.303944     0.005394
PD1321   PD        0.264175    0.748016    0.303616     0.005394
PD1322   PD        0.262203    0.784381    0.339648     0.005394
AU1323   AU        0.298061    0.748912    0.338479     0.007504
PD1324   PD        0.297151    0.783698    0.307500     0.005394
AU1325   AU        0.331856    0.748966    0.305093     0.007504
AU1326   AU        0.331986    0.782443    0.339309     0.007504
AU1327   AU        0.363035    0.747717    0.337325     0.007504
AU1328   AU        0.364493    0.782176    0.303324     0.007504
AU1329   AU        0.394882    0.747858    0.303302     0.007504
PD1330   PD        0.395652    0.782338    0.336332     0.005394
PD1331   PD        0.429297    0.749704    0.338246     0.005394
PD1332   PD        0.430339    0.782559    0.305070     0.005394
AU1333   AU        0.463315    0.748388    0.304742     0.007504
AU1334   AU        0.464797    0.784294    0.336501     0.007504
AU1335   AU        0.499234    0.750442    0.338147     0.007504
AU1336   AU        0.498294    0.783728    0.304818     0.007504
AU1337   AU        0.529293    0.747897    0.304448     0.007504
AU1338   AU        0.530705    0.785629    0.334616     0.007504
AU1339   AU        0.562543    0.749579    0.335329     0.007504
PD1340   PD        0.566153    0.783677    0.303490     0.005394
PD1341   PD        0.598670    0.748525    0.302474     0.005394
AU1342   AU        0.596569    0.783787    0.339015     0.007504
PD1343   PD        0.634286    0.748530    0.342411     0.005394
PD1344   PD        0.629962    0.779640    0.305049     0.005394
PD1345   PD        0.669324    0.751827    0.306282     0.005394
PD1346   PD        0.665460    0.782223    0.342704     0.005394
PD1347   PD        0.697210    0.747736    0.339972     0.005394
PD1348   PD        0.667367    0.850197    0.265481     0.005394
PD1349   PD        0.732282    0.745916    0.303137     0.005394
PD1350   PD        0.297146    0.818020    0.340020     0.005394
PD1351   PD        0.329255    0.816319    0.304453     0.005394
PD1352   PD        0.295446    0.852129    0.303363     0.005394
PD1353   PD        0.363313    0.816851    0.337998     0.005394
PD1354   PD        0.361610    0.849398    0.307218     0.005394
PD1355   PD        0.396877    0.815974    0.305028     0.005394
PD1356   PD        0.397370    0.850593    0.336669     0.005394
PD1357   PD        0.431622    0.816724    0.336440     0.005394
PD1358   PD        0.429580    0.851021    0.304010     0.005394
AU1359   AU        0.465689    0.818715    0.305059     0.007504
PD1360   PD        0.462296    0.852497    0.336095     0.005394
AU1361   AU        0.497016    0.818539    0.338096     0.007504
PD1362   PD        0.499459    0.855643    0.308268     0.005394
PD1363   PD        0.529312    0.821451    0.303126     0.005394
PD1364   PD        0.566298    0.888424    0.339366     0.005394
PD1365   PD        0.562366    0.820747    0.338698     0.005394
PD1366   PD        0.563561    0.855015    0.302476     0.005394
PD1367   PD        0.594426    0.818509    0.303354     0.005394
PD1368   PD        0.597471    0.851823    0.337005     0.005394
PD1369   PD        0.630814    0.817308    0.336970     0.005394
PD1370   PD        0.296119    0.067721    0.372071     0.005394
PD1371   PD        0.325601    0.028495    0.432837     0.005394
PD1372   PD        0.364596    0.068909    0.372685     0.005394
AU1373   AU        0.398015    0.069369    0.405186     0.007504
PD1374   PD        0.432743    0.033305    0.403952     0.005394
AU1375   AU        0.430999    0.069656    0.372471     0.007504
PD1376   PD        0.467445    0.033330    0.370517     0.005394
PD1377   PD        0.465997    0.070216    0.406046     0.005394
PD1378   PD        0.496561    0.034128    0.406791     0.005394
PD1379   PD        0.498615    0.071358    0.372041     0.005394
PD1380   PD        0.529019    0.071405    0.406276     0.005394
PD1381   PD        0.562669    0.069582    0.371427     0.005394
PD1382   PD        0.593133    0.065723    0.409651     0.005394
PD1383   PD        0.633474    0.071007    0.370087     0.005394
PD1384   PD        0.198273    0.136708    0.404771     0.005394
PD1385   PD        0.233712    0.102100    0.401941     0.005394
PD1386   PD        0.233950    0.139637    0.371559     0.005394
PD1387   PD        0.264660    0.105809    0.368744     0.005394
PD1388   PD        0.267200    0.138888    0.404042     0.005394
PD1389   PD        0.298149    0.105813    0.404800     0.005394
AU1390   AU        0.297697    0.139845    0.370858     0.007504
PD1391   PD        0.332597    0.101687    0.372119     0.005394
AU1392   AU        0.332067    0.139921    0.404654     0.007504
PD1393   PD        0.366119    0.104260    0.407524     0.005394
AU1394   AU        0.362630    0.138818    0.370279     0.007504
PD1395   PD        0.397328    0.105302    0.369502     0.005394
AU1396   AU        0.396863    0.139234    0.405589     0.007504
AU1397   AU        0.430112    0.101972    0.404963     0.007504
PD1398   PD        0.432431    0.137654    0.373683     0.005394
PD1399   PD        0.464901    0.106354    0.372982     0.005394
PD1400   PD        0.464631    0.138042    0.404188     0.005394
PD1401   PD        0.499583    0.105599    0.404671     0.005394
AU1402   AU        0.499741    0.138899    0.371710     0.007504
AU1403   AU        0.530980    0.104211    0.372227     0.007504
AU1404   AU        0.531104    0.137772    0.407584     0.007504
PD1405   PD        0.562996    0.104258    0.405447     0.005394
AU1406   AU        0.565952    0.138145    0.374073     0.007504
PD1407   PD        0.598036    0.105222    0.375925     0.005394
PD1408   PD        0.597698    0.137727    0.407278     0.005394
PD1409   PD        0.631909    0.102326    0.408526     0.005394
PD1410   PD        0.632619    0.139230    0.375612     0.005394
PD1411   PD        0.666564    0.102817    0.371012     0.005394
PD1412   PD        0.664897    0.137822    0.407417     0.005394
PD1413   PD        0.695998    0.101513    0.406697     0.005394
PD1414   PD        0.729383    0.142335    0.337671     0.005394
PD1415   PD        0.731062    0.135636    0.408636     0.005394
PD1416   PD        0.132015    0.206889    0.404519     0.005394
PD1417   PD        0.167328    0.175782    0.406558     0.005394
PD1418   PD        0.166445    0.208230    0.369963     0.005394
PD1419   PD        0.197522    0.171933    0.370414     0.005394
AU1420   AU        0.197499    0.211137    0.403801     0.007504
AU1421   AU        0.228925    0.174710    0.405859     0.007504
AU1422   AU        0.231077    0.207606    0.370915     0.007504
AU1423   AU        0.265455    0.174350    0.370930     0.007504
AU1424   AU        0.264268    0.208190    0.403725     0.007504
AU1425   AU        0.298762    0.174873    0.403972     0.007504
AU1426   AU        0.296224    0.209646    0.369851     0.007504
AU1427   AU        0.330258    0.174345    0.369578     0.007504
AU1428   AU        0.332008    0.209578    0.404340     0.007504
AU1429   AU        0.363688    0.174948    0.406245     0.007504
AU1430   AU        0.364846    0.209523    0.372084     0.007504
AU1431   AU        0.398032    0.174014    0.370591     0.007504
AU1432   AU        0.397446    0.210286    0.404819     0.007504
AU1433   AU        0.432653    0.174243    0.406166     0.007504
AU1434   AU        0.431247    0.211100    0.370726     0.007504
PD1435   PD        0.465545    0.172444    0.374553     0.005394
AU1436   AU        0.465175    0.209604    0.404067     0.007504
AU1437   AU        0.500286    0.174953    0.405826     0.007504
AU1438   AU        0.499757    0.208561    0.369670     0.007504
AU1439   AU        0.533115    0.172961    0.372421     0.007504
AU1440   AU        0.533244    0.208369    0.404004     0.007504
AU1441   AU        0.564904    0.175613    0.406375     0.007504
AU1442   AU        0.565021    0.208908    0.372044     0.007504
AU1443   AU        0.597766    0.175637    0.373519     0.007504
AU1444   AU        0.597884    0.210125    0.404930     0.007504
PD1445   PD        0.630463    0.174486    0.406594     0.005394
AU1446   AU        0.631925    0.210784    0.373557     0.007504
AU1447   AU        0.664654    0.174117    0.373785     0.007504
AU1448   AU        0.666114    0.209786    0.407279     0.007504
AU1449   AU        0.697125    0.174851    0.407215     0.007504
AU1450   AU        0.697205    0.210016    0.373055     0.007504
PD1451   PD        0.728852    0.174008    0.374140     0.005394
AU1452   AU        0.731023    0.208451    0.405420     0.007504
PD1453   PD        0.766126    0.168125    0.407276     0.005394
PD1454   PD        0.761133    0.211182    0.373166     0.005394
PD1455   PD        0.798127    0.205764    0.407015     0.005394
PD1456   PD        0.098408    0.284272    0.371301     0.005394
PD1457   PD        0.132975    0.245801    0.371277     0.005394
PD1458   PD        0.132645    0.279833    0.400990     0.005394
AU1459   AU        0.163540    0.244533    0.404337     0.007504
PD1460   PD        0.167459    0.278147    0.373723     0.005394
AU1461   AU        0.198628    0.245022    0.370422     0.007504
AU1462   AU        0.198847    0.279979    0.404745     0.007504
AU1463   AU        0.230697    0.244445    0.403696     0.007504
AU1464   AU        0.231261    0.278846    0.370781     0.007504
AU1465   AU        0.264112    0.243187    0.370780     0.007504
AU1466   AU        0.264274    0.280497    0.405384     0.007504
AU1467   AU        0.296899    0.243751    0.404655     0.007504
AU1468   AU        0.293756    0.278933    0.372713     0.007504
AU1469   AU        0.330728    0.243649    0.370270     0.007504
AU1470   AU        0.328427    0.279585    0.405282     0.007504
AU1471   AU        0.364265    0.244375    0.403538     0.007504
AU1472   AU        0.361882    0.279916    0.372685     0.007504
AU1473   AU        0.395623    0.245312    0.371758     0.007504
AU1474   AU        0.396469    0.279263    0.403991     0.007504
AU1475   AU        0.430087    0.242847    0.404600     0.007504
AU1476   AU        0.432567    0.279529    0.370886     0.007504
AU1477   AU        0.465094    0.244429    0.370014     0.007504
AU1478   AU        0.464841    0.280804    0.404793     0.007504
AU1479   AU        0.498956    0.244242    0.405081     0.007504
AU1480   AU        0.499839    0.281718    0.371378     0.007504
AU1481   AU        0.531752    0.245197    0.370642     0.007504
AU1482   AU        0.532827    0.279940    0.405781     0.007504
AU1483   AU        0.565049    0.245018    0.404852     0.007504
AU1484   AU        0.565923    0.280533    0.372044     0.007504
AU1485   AU        0.598842    0.246931    0.373378     0.007504
AU1486   AU        0.599239    0.281598    0.405453     0.007504
PD1487   PD        0.630663    0.244706    0.409989     0.005394
AU1488   AU        0.633438    0.280296    0.371258     0.007504
PD1489   PD        0.665614    0.245363    0.374917     0.005394
AU1490   AU        0.665689    0.280108    0.406863     0.007504
AU1491   AU        0.698458    0.242898    0.405659     0.007504
AU1492   AU        0.698632    0.279917    0.372777     0.007504
AU1493   AU        0.730332    0.244191    0.372419     0.007504
AU1494   AU        0.731027    0.280604    0.405906     0.007504
PD1495   PD        0.762556    0.243066    0.404425     0.005394
PD1496   PD        0.762279    0.277547    0.372837     0.005394
PD1497   PD        0.797777    0.245667    0.375585     0.005394
PD1498   PD        0.799116    0.285996    0.406105     0.005394
PD1499   PD        0.831305    0.278047    0.369817     0.005394
PD1500   PD        0.067389    0.352464    0.405729     0.005394
PD1501   PD        0.101522    0.352919    0.370206     0.005394
PD1502   PD        0.133574    0.319094    0.373945     0.005394
PD1503   PD        0.132838    0.352793    0.405536     0.005394
PD1504   PD        0.167790    0.315908    0.404734     0.005394
PD1505   PD        0.164645    0.352106    0.370529     0.005394
PD1506   PD        0.198957    0.314788    0.371792     0.005394
PD1507   PD        0.198207    0.351212    0.405978     0.005394
AU1508   AU        0.230149    0.315074    0.402635     0.007504
AU1509   AU        0.229941    0.351059    0.370865     0.007504
AU1510   AU        0.262002    0.314370    0.370186     0.007504
AU1511   AU        0.262909    0.350368    0.405145     0.007504
AU1512   AU        0.296392    0.316560    0.404142     0.007504
AU1513   AU        0.296204    0.351184    0.369850     0.007504
AU1514   AU        0.329785    0.315073    0.370964     0.007504
AU1515   AU        0.330283    0.350553    0.404599     0.007504
AU1516   AU        0.363681    0.315226    0.406904     0.007504
AU1517   AU        0.365161    0.351671    0.371021     0.007504
AU1518   AU        0.399378    0.316398    0.370065     0.007504
AU1519   AU        0.396837    0.353348    0.405039     0.007504
AU1520   AU        0.431048    0.318894    0.405809     0.007504
AU1521   AU        0.430921    0.351717    0.371847     0.007504
AU1522   AU        0.464913    0.316097    0.372347     0.007504
AU1523   AU        0.463155    0.351673    0.405261     0.007504
AU1524   AU        0.498971    0.316300    0.404630     0.007504
AU1525   AU        0.496377    0.354122    0.371424     0.007504
AU1526   AU        0.532084    0.315988    0.372257     0.007504
AU1527   AU        0.530736    0.351771    0.404677     0.007504
AU1528   AU        0.565053    0.316533    0.405728     0.007504
AU1529   AU        0.564990    0.351722    0.371964     0.007504
AU1530   AU        0.599187    0.317885    0.372628     0.007504
AU1531   AU        0.598753    0.353169    0.405895     0.007504
AU1532   AU        0.635310    0.316136    0.404071     0.007504
AU1533   AU        0.631163    0.353508    0.372872     0.007504
AU1534   AU        0.667346    0.315815    0.370863     0.007504
AU1535   AU        0.667293    0.355133    0.405319     0.007504
AU1536   AU        0.698477    0.317028    0.405087     0.007504
AU1537   AU        0.698537    0.355492    0.370674     0.007504
PD1538   PD        0.730247    0.316341    0.372129     0.005394
PD1539   PD        0.731579    0.354506    0.406770     0.005394
AU1540   AU        0.764803    0.317803    0.405682     0.007504
PD1541   PD        0.764034    0.354770    0.371162     0.005394
PD1542   PD        0.797804    0.320460    0.373097     0.005394
PD1543   PD        0.798591    0.353153    0.405885     0.005394
PD1544   PD        0.830884    0.317878    0.407602     0.005394
PD1545   PD        0.832645    0.355744    0.375551     0.005394
PD1546   PD        0.065792    0.424091    0.402141     0.005394
PD1547   PD        0.100068    0.388319    0.405893     0.005394
PD1548   PD        0.100255    0.423764    0.372227     0.005394
PD1549   PD        0.132032    0.385262    0.370003     0.005394
PD1550   PD        0.131234    0.426402    0.403577     0.005394
PD1551   PD        0.162458    0.389852    0.405346     0.005394
PD1552   PD        0.164801    0.426493    0.370355     0.005394
PD1553   PD        0.197559    0.387207    0.369344     0.005394
AU1554   AU        0.197849    0.425698    0.406576     0.007504
AU1555   AU        0.228744    0.387609    0.406579     0.007504
PD1556   PD        0.227973    0.425015    0.370498     0.005394
AU1557   AU        0.262423    0.388063    0.372730     0.007504
AU1558   AU        0.260728    0.426931    0.403052     0.007504
AU1559   AU        0.297380    0.388322    0.404443     0.007504
AU1560   AU        0.295686    0.424908    0.373365     0.007504
AU1561   AU        0.329951    0.388373    0.370513     0.007504
AU1562   AU        0.329781    0.425871    0.405994     0.007504
AU1563   AU        0.362926    0.388173    0.405250     0.007504
AU1564   AU        0.362823    0.423728    0.369299     0.007504
AU1565   AU        0.397482    0.387154    0.369923     0.007504
AU1566   AU        0.398382    0.423794    0.404019     0.007504
AU1567   AU        0.430284    0.387608    0.404436     0.007504
AU1568   AU        0.431153    0.424496    0.370077     0.007504
AU1569   AU        0.462843    0.387825    0.372625     0.007504
AU1570   AU        0.464146    0.424908    0.402421     0.007504
AU1571   AU        0.499639    0.388165    0.403969     0.007504
AU1572   AU        0.498751    0.423613    0.369758     0.007504
AU1573   AU        0.531348    0.389512    0.370409     0.007504
AU1574   AU        0.531782    0.425671    0.405860     0.007504
AU1575   AU        0.564888    0.388793    0.404020     0.007504
AU1576   AU        0.565155    0.426607    0.372839     0.007504
AU1577   AU        0.598516    0.389313    0.374052     0.007504
AU1578   AU        0.599881    0.425933    0.406093     0.007504
AU1579   AU        0.633663    0.388475    0.404982     0.007504
AU1580   AU        0.632676    0.423264    0.373682     0.007504
AU1581   AU        0.664932    0.389079    0.373484     0.007504
AU1582   AU        0.665945    0.425030    0.404182     0.007504
AU1583   AU        0.698147    0.390985    0.406086     0.007504
AU1584   AU        0.696624    0.427803    0.371726     0.007504
PD1585   PD        0.731570    0.391478    0.371498     0.005394
AU1586   AU        0.731871    0.428047    0.402526     0.007504
AU1587   AU        0.765100    0.390139    0.404938     0.007504
AU1588   AU        0.766540    0.425495    0.372838     0.007504
AU1589   AU        0.799382    0.389546    0.372216     0.007504
AU1590   AU        0.797479    0.426097    0.406369     0.007504
PD1591   PD        0.829763    0.389957    0.405153     0.005394
PD1592   PD        0.829078    0.424368    0.372524     0.005394
PD1593   PD        0.862553    0.429130    0.407969     0.005394
PD1594   PD        0.030596    0.500766    0.371952     0.005394
PD1595   PD        0.000667    0.491734    0.409197     0.005394
PD1596   PD        0.096992    0.459942    0.405667     0.005394
PD1597   PD        0.097899    0.496881    0.369079     0.005394
PD1598   PD        0.131537    0.461995    0.370661     0.005394
AU1599   AU        0.131256    0.495372    0.404948     0.007504
AU1600   AU        0.164402    0.460486    0.403787     0.007504
AU1601   AU        0.163944    0.498128    0.372042     0.007504
AU1602   AU        0.196266    0.463490    0.369165     0.007504
AU1603   AU        0.195918    0.496556    0.404179     0.007504
AU1604   AU        0.227983    0.462006    0.405774     0.007504
AU1605   AU        0.228485    0.496704    0.372115     0.007504
AU1606   AU        0.260111    0.460250    0.370330     0.007504
AU1607   AU        0.261325    0.494812    0.403682     0.007504
AU1608   AU        0.295313    0.461272    0.402952     0.007504
AU1609   AU        0.295145    0.496062    0.370399     0.007504
AU1610   AU        0.329291    0.462793    0.370538     0.007504
AU1611   AU        0.330014    0.496837    0.404574     0.007504
AU1612   AU        0.361997    0.461089    0.403846     0.007504
AU1613   AU        0.364129    0.495801    0.372899     0.007504
AU1614   AU        0.397397    0.461315    0.371476     0.007504
AU1615   AU        0.399378    0.499212    0.404244     0.007504
AU1616   AU        0.431056    0.459934    0.403908     0.007504
AU1617   AU        0.431070    0.497989    0.370833     0.007504
AU1618   AU        0.466341    0.463178    0.372142     0.007504
AU1619   AU        0.463443    0.496886    0.405557     0.007504
AU1620   AU        0.497493    0.461101    0.405395     0.007504
AU1621   AU        0.500302    0.497805    0.372261     0.007504
AU1622   AU        0.530359    0.461506    0.370731     0.007504
AU1623   AU        0.531632    0.499393    0.407222     0.007504
AU1624   AU        0.566503    0.462296    0.404729     0.007504
AU1625   AU        0.562918    0.494800    0.372161     0.007504
AU1626   AU        0.599012    0.459830    0.372559     0.007504
AU1627   AU        0.599933    0.497369    0.404298     0.007504
AU1628   AU        0.630182    0.461694    0.405624     0.007504
AU1629   AU        0.632130    0.498901    0.372945     0.007504
AU1630   AU        0.664846    0.463234    0.373241     0.007504
AU1631   AU        0.665812    0.497989    0.404997     0.007504
AU1632   AU        0.697739    0.462956    0.405234     0.007504
AU1633   AU        0.698937    0.498100    0.371192     0.007504
AU1634   AU        0.731500    0.463661    0.371649     0.007504
AU1635   AU        0.731579    0.496196    0.405304     0.007504
AU1636   AU        0.764282    0.461810    0.404544     0.007504
PD1637   PD        0.765109    0.496728    0.374129     0.005394
AU1638   AU        0.795417    0.461974    0.372855     0.007504
AU1639   AU        0.797481    0.497121    0.406530     0.007504
PD1640   PD        0.829756    0.461819    0.405498     0.005394
PD1641   PD        0.825334    0.499860    0.371417     0.005394
PD1642   PD        0.895870    0.462403    0.406050     0.005394
PD1643   PD        0.862012    0.497981    0.406605     0.005394
AU1644   AU        0.101022    0.530995    0.403339     0.007504
AU1645   AU        0.100397    0.567064    0.371461     0.007504
AU1646   AU        0.133080    0.532100    0.371307     0.007504
AU1647   AU        0.130634    0.567535    0.403929     0.007504
PD1648   PD        0.162205    0.533672    0.406618     0.005394
AU1649   AU        0.165006    0.568357    0.371485     0.007504
PD1650   PD        0.195894    0.533007    0.372512     0.005394
PD1651   PD        0.196688    0.569430    0.405984     0.005394
AU1652   AU        0.231342    0.534133    0.403715     0.007504
PD1653   PD        0.227926    0.570141    0.371594     0.005394
AU1654   AU        0.264666    0.535004    0.372061     0.007504
AU1655   AU        0.262865    0.570089    0.405267     0.007504
AU1656   AU        0.294981    0.529892    0.405215     0.007504
AU1657   AU        0.295874    0.568370    0.370235     0.007504
AU1658   AU        0.329062    0.531388    0.369712     0.007504
AU1659   AU        0.331049    0.568948    0.403453     0.007504
AU1660   AU        0.361789    0.532402    0.405051     0.007504
AU1661   AU        0.364872    0.568429    0.370610     0.007504
AU1662   AU        0.396961    0.532420    0.370988     0.007504
AU1663   AU        0.396324    0.568407    0.404988     0.007504
AU1664   AU        0.430595    0.533948    0.402803     0.007504
AU1665   AU        0.429715    0.569628    0.372753     0.007504
AU1666   AU        0.463142    0.534097    0.371030     0.007504
AU1667   AU        0.465654    0.568597    0.406694     0.007504
AU1668   AU        0.498068    0.534164    0.404449     0.007504
AU1669   AU        0.495615    0.569369    0.370803     0.007504
AU1670   AU        0.531259    0.535611    0.369258     0.007504
AU1671   AU        0.530580    0.568789    0.403078     0.007504
AU1672   AU        0.564228    0.535130    0.406662     0.007504
AU1673   AU        0.566042    0.567615    0.373441     0.007504
AU1674   AU        0.598136    0.531585    0.370571     0.007504
AU1675   AU        0.598822    0.571454    0.405618     0.007504
AU1676   AU        0.632968    0.532830    0.404578     0.007504
AU1677   AU        0.630908    0.570143    0.372570     0.007504
AU1678   AU        0.666060    0.533867    0.373257     0.007504
AU1679   AU        0.667763    0.567844    0.405035     0.007504
AU1680   AU        0.699754    0.532404    0.405119     0.007504
AU1681   AU        0.699549    0.568368    0.371350     0.007504
PD1682   PD        0.732220    0.533243    0.373154     0.005394
PD1683   PD        0.730089    0.569284    0.406112     0.005394
PD1684   PD        0.762792    0.532352    0.406523     0.005394
PD1685   PD        0.763842    0.569176    0.369994     0.005394
PD1686   PD        0.797713    0.529694    0.370042     0.005394
PD1687   PD        0.795672    0.569577    0.407457     0.005394
AU1688   AU        0.829099    0.534574    0.407523     0.007504
PD1689   PD        0.829167    0.566335    0.372865     0.005394
PD1690   PD        0.098498    0.603111    0.403616     0.005394
PD1691   PD        0.100797    0.639090    0.371477     0.005394
PD1692   PD        0.133070    0.602830    0.372019     0.005394
PD1693   PD        0.134456    0.638172    0.404825     0.005394
PD1694   PD        0.165745    0.605180    0.404114     0.005394
PD1695   PD        0.165378    0.637838    0.369920     0.005394
PD1696   PD        0.197288    0.606276    0.373112     0.005394
AU1697   AU        0.197549    0.641930    0.404016     0.007504
AU1698   AU        0.231744    0.605391    0.404754     0.007504
AU1699   AU        0.230532    0.638784    0.370409     0.007504
AU1700   AU        0.265854    0.604711    0.370836     0.007504
AU1701   AU        0.263994    0.643118    0.405748     0.007504
AU1702   AU        0.298344    0.605372    0.405055     0.007504
AU1703   AU        0.297598    0.639453    0.372963     0.007504
AU1704   AU        0.331180    0.603419    0.371481     0.007504
AU1705   AU        0.331296    0.640073    0.406303     0.007504
AU1706   AU        0.362765    0.602731    0.404218     0.007504
AU1707   AU        0.361986    0.642560    0.372775     0.007504
AU1708   AU        0.396034    0.606089    0.370380     0.007504
AU1709   AU        0.393654    0.641227    0.405399     0.007504
AU1710   AU        0.430608    0.607467    0.404541     0.007504
AU1711   AU        0.430737    0.642139    0.372785     0.007504
AU1712   AU        0.464400    0.606603    0.370469     0.007504
AU1713   AU        0.463966    0.642877    0.405579     0.007504
AU1714   AU        0.496600    0.605386    0.403585     0.007504
AU1715   AU        0.498515    0.642039    0.371807     0.007504
AU1716   AU        0.533246    0.605619    0.370437     0.007504
AU1717   AU        0.531906    0.642704    0.405260     0.007504
AU1718   AU        0.565664    0.606903    0.403626     0.007504
AU1719   AU        0.565800    0.644049    0.371589     0.007504
AU1720   AU        0.598145    0.607446    0.372231     0.007504
AU1721   AU        0.599038    0.643758    0.405670     0.007504
AU1722   AU        0.632666    0.608015    0.406420     0.007504
AU1723   AU        0.631371    0.640605    0.371620     0.007504
AU1724   AU        0.665322    0.607270    0.372911     0.007504
AU1725   AU        0.664666    0.643555    0.405342     0.007504
PD1726   PD        0.699676    0.607230    0.404834     0.005394
AU1727   AU        0.699472    0.642641    0.372131     0.007504
AU1728   AU        0.731963    0.605637    0.372453     0.007504
AU1729   AU        0.731985    0.640736    0.405507     0.007504
AU1730   AU        0.764202    0.604794    0.406232     0.007504
AU1731   AU        0.762465    0.641182    0.374129     0.007504
PD1732   PD        0.795916    0.604649    0.371594     0.005394
PD1733   PD        0.797495    0.639535    0.405813     0.005394
PD1734   PD        0.829070    0.602183    0.406374     0.005394
PD1735   PD        0.851253    0.631807    0.308103     0.005394
PD1736   PD        0.071697    0.655993    0.324374     0.005394
PD1737   PD        0.133124    0.748470    0.374656     0.005394
PD1738   PD        0.165352    0.675359    0.407323     0.005394
PD1739   PD        0.167333    0.710390    0.371900     0.005394
PD1740   PD        0.197160    0.676265    0.373821     0.005394
AU1741   AU        0.197294    0.709677    0.408413     0.007504
AU1742   AU        0.230632    0.676379    0.406208     0.007504
AU1743   AU        0.232712    0.711868    0.373780     0.007504
PD1744   PD        0.266729    0.679329    0.371339     0.005394
PD1745   PD        0.264563    0.709758    0.406437     0.005394
AU1746   AU        0.298111    0.677095    0.404774     0.007504
PD1747   PD        0.301959    0.713038    0.374032     0.005394
AU1748   AU        0.329348    0.675670    0.370362     0.007504
AU1749   AU        0.333025    0.713241    0.404713     0.007504
AU1750   AU        0.364716    0.678147    0.403874     0.007504
AU1751   AU        0.364603    0.711621    0.371944     0.007504
AU1752   AU        0.396457    0.676401    0.372749     0.007504
AU1753   AU        0.396278    0.714446    0.402972     0.007504
AU1754   AU        0.430588    0.675679    0.405825     0.007504
AU1755   AU        0.431763    0.713067    0.370526     0.007504
AU1756   AU        0.464071    0.679107    0.370978     0.007504
PD1757   PD        0.464193    0.713355    0.405322     0.005394
AU1758   AU        0.500494    0.679611    0.405558     0.007504
AU1759   AU        0.497836    0.713140    0.369780     0.007504
AU1760   AU        0.532327    0.678725    0.370848     0.007504
AU1761   AU        0.532103    0.714651    0.405419     0.007504
AU1762   AU        0.564862    0.680604    0.404606     0.007504
AU1763   AU        0.562646    0.714778    0.370578     0.007504
AU1764   AU        0.597993    0.678843    0.372034     0.007504
AU1765   AU        0.598961    0.712477    0.405715     0.007504
PD1766   PD        0.632285    0.679045    0.402420     0.005394
PD1767   PD        0.631242    0.712584    0.371576     0.005394
PD1768   PD        0.665621    0.678485    0.374258     0.005394
AU1769   AU        0.666428    0.713424    0.408674     0.007504
AU1770   AU        0.699306    0.677129    0.406567     0.007504
PD1771   PD        0.698729    0.712370    0.370599     0.005394
PD1772   PD        0.733632    0.678911    0.374196     0.005394
AU1773   AU        0.732196    0.711808    0.408390     0.007504
AU1774   AU        0.762770    0.675350    0.406529     0.007504
PD1775   PD        0.763551    0.714435    0.375200     0.005394
PD1776   PD        0.797454    0.679031    0.374803     0.005394
PD1777   PD        0.795501    0.713375    0.404737     0.005394
PD1778   PD        0.135256    0.749271    0.438554     0.005394
PD1779   PD        0.200757    0.745218    0.373856     0.005394
PD1780   PD        0.199572    0.783118    0.404489     0.005394
AU1781   AU        0.231747    0.748505    0.404966     0.007504
PD1782   PD        0.230540    0.783033    0.373528     0.005394
AU1783   AU        0.264840    0.747741    0.372964     0.007504
AU1784   AU        0.263832    0.781017    0.407874     0.007504
AU1785   AU        0.298996    0.747458    0.405336     0.007504
PD1786   PD        0.297498    0.782404    0.371226     0.005394
AU1787   AU        0.331814    0.747661    0.372569     0.007504
AU1788   AU        0.330020    0.783630    0.404858     0.007504
AU1789   AU        0.362317    0.748047    0.405793     0.007504
PD1790   PD        0.364108    0.783345    0.372632     0.005394
AU1791   AU        0.396365    0.750282    0.373108     0.007504
AU1792   AU        0.395829    0.783584    0.406586     0.007504
AU1793   AU        0.431324    0.750062    0.406715     0.007504
PD1794   PD        0.431506    0.785440    0.371110     0.005394
AU1795   AU        0.464734    0.749153    0.369399     0.007504
AU1796   AU        0.465618    0.784006    0.405776     0.007504
AU1797   AU        0.498623    0.749699    0.403818     0.007504
AU1798   AU        0.497083    0.784222    0.370969     0.007504
AU1799   AU        0.531743    0.751854    0.369281     0.007504
PD1800   PD        0.532335    0.785079    0.402749     0.005394
AU1801   AU        0.566580    0.748611    0.403693     0.007504
PD1802   PD        0.565970    0.784071    0.371828     0.005394
AU1803   AU        0.598978    0.747027    0.372600     0.007504
AU1804   AU        0.599868    0.782949    0.406462     0.007504
AU1805   AU        0.632666    0.749262    0.406239     0.007504
PD1806   PD        0.631395    0.785097    0.372582     0.005394
PD1807   PD        0.665720    0.748260    0.373955     0.005394
AU1808   AU        0.666698    0.784096    0.404870     0.007504
AU1809   AU        0.699197    0.748071    0.407228     0.007504
PD1810   PD        0.701300    0.783569    0.375464     0.005394
PD1811   PD        0.731378    0.746886    0.374953     0.005394
PD1812   PD        0.731259    0.781107    0.407854     0.005394
PD1813   PD        0.763404    0.744413    0.406347     0.005394
PD1814   PD        0.266147    0.815252    0.373423     0.005394
PD1815   PD        0.232071    0.812988    0.339619     0.005394
PD1816   PD        0.296804    0.815258    0.405233     0.005394
PD1817   PD        0.329848    0.892474    0.370759     0.005394
PD1818   PD        0.330198    0.819404    0.371887     0.005394
PD1819   PD        0.334631    0.855437    0.408624     0.005394
AU1820   AU        0.361288    0.816767    0.405227     0.007504
PD1821   PD        0.364495    0.852193    0.372183     0.005394
PD1822   PD        0.397552    0.817214    0.371524     0.005394
PD1823   PD        0.395071    0.852133    0.407924     0.005394
PD1824   PD        0.428839    0.818467    0.403072     0.005394
PD1825   PD        0.431185    0.851498    0.368147     0.005394
PD1826   PD        0.462803    0.817634    0.369808     0.005394
PD1827   PD        0.464304    0.851206    0.401785     0.005394
PD1828   PD        0.498948    0.817415    0.404813     0.005394
PD1829   PD        0.496075    0.853254    0.370853     0.005394
PD1830   PD        0.527713    0.818258    0.370869     0.005394
PD1831   PD        0.528814    0.852687    0.407695     0.005394
PD1832   PD        0.566729    0.815192    0.406017     0.005394
PD1833   PD        0.563912    0.851254    0.373028     0.005394
PD1834   PD        0.598467    0.818691    0.371401     0.005394
PD1835   PD        0.570563    0.888127    0.405304     0.005394
PD1836   PD        0.633448    0.817263    0.407041     0.005394
PD1837   PD        0.631996    0.850791    0.375705     0.005394
PD1838   PD        0.665883    0.820021    0.368641     0.005394
PD1839   PD        0.696782    0.819314    0.403515     0.005394
PD1840   PD        0.432485    0.886852    0.400354     0.005394
PD1841   PD        0.466580    0.928088    0.407137     0.005394
PD1842   PD        0.494516    0.891240    0.405373     0.005394
PD1843   PD        0.296638    0.068506    0.439531     0.005394
PD1844   PD        0.332577    0.070358    0.471971     0.005394
PD1845   PD        0.365492    0.068633    0.440460     0.005394
PD1846   PD        0.395283    0.035050    0.436971     0.005394
PD1847   PD        0.395643    0.068091    0.473438     0.005394
PD1848   PD        0.397824    0.000714    0.471605     0.005394
PD1849   PD        0.430866    0.068522    0.439766     0.005394
PD1850   PD        0.461778    0.035682    0.439270     0.005394
PD1851   PD        0.463817    0.069026    0.470792     0.005394
PD1852   PD        0.495957    0.034699    0.467022     0.005394
AU1853   AU        0.496237    0.070609    0.438239     0.007504
PD1854   PD        0.531563    0.034147    0.438191     0.005394
PD1855   PD        0.532482    0.071214    0.470564     0.005394
PD1856   PD        0.564623    0.070723    0.437142     0.005394
PD1857   PD        0.600044    0.068954    0.474902     0.005394
PD1858   PD        0.631481    0.071510    0.439555     0.005394
PD1859   PD        0.201439    0.136771    0.473365     0.005394
PD1860   PD        0.263154    0.070850    0.469435     0.005394
PD1861   PD        0.233100    0.138911    0.434499     0.005394
PD1862   PD        0.263229    0.103722    0.434236     0.005394
PD1863   PD        0.266119    0.138049    0.474123     0.005394
PD1864   PD        0.296611    0.105381    0.471935     0.005394
AU1865   AU        0.298865    0.139782    0.437631     0.007504
AU1866   AU        0.331149    0.105954    0.438339     0.007504
PD1867   PD        0.330013    0.137150    0.473290     0.005394
PD1868   PD        0.364389    0.105494    0.471110     0.005394
PD1869   PD        0.364755    0.139957    0.439625     0.005394
PD1870   PD        0.400517    0.101444    0.439847     0.005394
PD1871   PD        0.398941    0.138875    0.471481     0.005394
AU1872   AU        0.431620    0.103216    0.472401     0.007504
AU1873   AU        0.431529    0.138777    0.436060     0.007504
AU1874   AU        0.464680    0.105984    0.438152     0.007504
AU1875   AU        0.464535    0.138950    0.470025     0.007504
AU1876   AU        0.499753    0.102523    0.472583     0.007504
PD1877   PD        0.497057    0.138174    0.437911     0.005394
AU1878   AU        0.531850    0.104713    0.439152     0.007504
AU1879   AU        0.532544    0.138238    0.474541     0.007504
AU1880   AU        0.565487    0.103213    0.473220     0.007504
AU1881   AU        0.565665    0.139558    0.439156     0.007504
PD1882   PD        0.597890    0.103082    0.440496     0.005394
AU1883   AU        0.598195    0.139137    0.471586     0.007504
AU1884   AU        0.630236    0.105444    0.471558     0.007504
PD1885   PD        0.631358    0.137517    0.437799     0.005394
PD1886   PD        0.667889    0.103450    0.442446     0.005394
AU1887   AU        0.663014    0.138641    0.471069     0.007504
PD1888   PD        0.699033    0.103953    0.472820     0.005394
PD1889   PD        0.701217    0.139435    0.439440     0.005394
PD1890   PD        0.732011    0.142485    0.473640     0.005394
PD1891   PD        0.134339    0.211323    0.473438     0.005394
PD1892   PD        0.165656    0.175694    0.473301     0.005394
PD1893   PD        0.163847    0.209751    0.440898     0.005394
PD1894   PD        0.197118    0.174003    0.440037     0.005394
PD1895   PD        0.198760    0.212565    0.469434     0.005394
AU1896   AU        0.233662    0.172910    0.470518     0.007504
PD1897   PD        0.229329    0.208817    0.435627     0.005394
PD1898   PD        0.264133    0.175484    0.435126     0.005394
AU1899   AU        0.266373    0.207735    0.473551     0.007504
AU1900   AU        0.295979    0.172629    0.470803     0.007504
AU1901   AU        0.297167    0.208296    0.436165     0.007504
AU1902   AU        0.330429    0.175228    0.439037     0.007504
AU1903   AU        0.329145    0.209212    0.471054     0.007504
AU1904   AU        0.362101    0.174176    0.470568     0.007504
AU1905   AU        0.364616    0.210241    0.437824     0.007504
PD1906   PD        0.396754    0.170880    0.437706     0.005394
AU1907   AU        0.396111    0.207926    0.472622     0.007504
AU1908   AU        0.432794    0.173090    0.472153     0.007504
AU1909   AU        0.430972    0.208245    0.439562     0.007504
AU1910   AU        0.465723    0.173036    0.438333     0.007504
AU1911   AU        0.466179    0.209200    0.472387     0.007504
AU1912   AU        0.497896    0.173505    0.471671     0.007504
AU1913   AU        0.500301    0.209705    0.439517     0.007504
AU1914   AU        0.530955    0.172612    0.440705     0.007504
AU1915   AU        0.531292    0.210495    0.472402     0.007504
AU1916   AU        0.566701    0.174072    0.473230     0.007504
AU1917   AU        0.565505    0.209782    0.441064     0.007504
AU1918   AU        0.599858    0.174796    0.439964     0.007504
PD1919   PD        0.600364    0.209685    0.472377     0.005394
AU1920   AU        0.632519    0.172261    0.470571     0.007504
AU1921   AU        0.633165    0.209319    0.439806     0.007504
AU1922   AU        0.665944    0.173486    0.439331     0.007504
AU1923   AU        0.667186    0.211151    0.472002     0.007504
PD1924   PD        0.696589    0.173385    0.473919     0.005394
AU1925   AU        0.698247    0.210227    0.439526     0.007504
AU1926   AU        0.730971    0.174352    0.437213     0.007504
AU1927   AU        0.730677    0.210089    0.471253     0.007504
PD1928   PD        0.763904    0.176508    0.471442     0.005394
AU1929   AU        0.762616    0.209048    0.438763     0.007504
PD1930   PD        0.794364    0.207312    0.469238     0.005394
PD1931   PD        0.103004    0.280861    0.436492     0.005394
PD1932   PD        0.133004    0.245456    0.438219     0.005394
PD1933   PD        0.131560    0.280967    0.470397     0.005394
PD1934   PD        0.164967    0.244899    0.472042     0.005394
AU1935   AU        0.165057    0.281177    0.439796     0.007504
AU1936   AU        0.195939    0.245730    0.437312     0.007504
AU1937   AU        0.197322    0.281303    0.471332     0.007504
PD1938   PD        0.231535    0.245343    0.471988     0.005394
AU1939   AU        0.230051    0.278278    0.438710     0.007504
PD1940   PD        0.264724    0.241774    0.440145     0.005394
AU1941   AU        0.264221    0.279913    0.473822     0.007504
AU1942   AU        0.296114    0.242980    0.471890     0.007504
AU1943   AU        0.295420    0.280992    0.438575     0.007504
AU1944   AU        0.329627    0.244117    0.438874     0.007504
AU1945   AU        0.329795    0.280365    0.470516     0.007504
AU1946   AU        0.363295    0.243666    0.472872     0.007504
AU1947   AU        0.362910    0.277700    0.439143     0.007504
AU1948   AU        0.397923    0.243103    0.439256     0.007504
AU1949   AU        0.399347    0.279759    0.471575     0.007504
AU1950   AU        0.431785    0.245759    0.472348     0.007504
AU1951   AU        0.430248    0.277895    0.437038     0.007504
AU1952   AU        0.464282    0.242423    0.436654     0.007504
AU1953   AU        0.463542    0.280312    0.470247     0.007504
AU1954   AU        0.498753    0.244475    0.470636     0.007504
AU1955   AU        0.500495    0.278804    0.437700     0.007504
AU1956   AU        0.533446    0.245623    0.438031     0.007504
AU1957   AU        0.531566    0.280943    0.472848     0.007504
AU1958   AU        0.564223    0.246120    0.473398     0.007504
AU1959   AU        0.563875    0.280687    0.438495     0.007504
AU1960   AU        0.597210    0.245015    0.439358     0.007504
AU1961   AU        0.600573    0.279811    0.473627     0.007504
AU1962   AU        0.632377    0.243527    0.470323     0.007504
AU1963   AU        0.633409    0.281720    0.440506     0.007504
AU1964   AU        0.666144    0.244569    0.439871     0.007504
AU1965   AU        0.667110    0.281522    0.472973     0.007504
AU1966   AU        0.700490    0.245076    0.473131     0.007504
AU1967   AU        0.698727    0.279945    0.436942     0.007504
PD1968   PD        0.730162    0.244565    0.439316     0.005394
AU1969   AU        0.732138    0.282013    0.470499     0.007504
PD1970   PD        0.762349    0.246174    0.471338     0.005394
AU1971   AU        0.763766    0.278921    0.437539     0.007504
PD1972   PD        0.796624    0.245578    0.440980     0.005394
PD1973   PD        0.798286    0.282809    0.470397     0.005394
PD1974   PD        0.827278    0.281421    0.441209     0.005394
PD1975   PD        0.102538    0.316437    0.468906     0.005394
PD1976   PD        0.096896    0.354442    0.441182     0.005394
PD1977   PD        0.133228    0.315914    0.436062     0.005394
PD1978   PD        0.131527    0.353714    0.470924     0.005394
PD1979   PD        0.166104    0.316875    0.471504     0.005394
AU1980   AU        0.165634    0.353796    0.438503     0.007504
AU1981   AU        0.197409    0.317614    0.437120     0.007504
AU1982   AU        0.198096    0.353399    0.471543     0.007504
AU1983   AU        0.231999    0.317839    0.471201     0.007504
AU1984   AU        0.231255    0.352039    0.438178     0.007504
AU1985   AU        0.262295    0.317073    0.437840     0.007504
AU1986   AU        0.263510    0.353341    0.472549     0.007504
AU1987   AU        0.296076    0.314916    0.472303     0.007504
PD1988   PD        0.294091    0.352553    0.439689     0.005394
AU1989   AU        0.328350    0.315163    0.438253     0.007504
AU1990   AU        0.331046    0.352487    0.471947     0.007504
AU1991   AU        0.364574    0.315553    0.470884     0.007504
AU1992   AU        0.363368    0.353062    0.438370     0.007504
AU1993   AU        0.396976    0.315612    0.437762     0.007504
AU1994   AU        0.398142    0.351560    0.470234     0.007504
AU1995   AU        0.431198    0.314486    0.472083     0.007504
AU1996   AU        0.432402    0.353157    0.437856     0.007504
AU1997   AU        0.466827    0.316393    0.436751     0.007504
AU1998   AU        0.465759    0.352988    0.471554     0.007504
AU1999   AU        0.497273    0.317506    0.470630     0.007504
AU2000   AU        0.495677    0.353515    0.436903     0.007504
AU2001   AU        0.531854    0.316042    0.438949     0.007504
AU2002   AU        0.532148    0.354143    0.472800     0.007504
AU2003   AU        0.566657    0.315781    0.472059     0.007504
AU2004   AU        0.565105    0.353958    0.438334     0.007504
AU2005   AU        0.598877    0.318106    0.438339     0.007504
AU2006   AU        0.600886    0.352806    0.469945     0.007504
AU2007   AU        0.632075    0.317922    0.473334     0.007504
AU2008   AU        0.635013    0.350683    0.437975     0.007504
AU2009   AU        0.665702    0.316114    0.438929     0.007504
PD2010   PD        0.663618    0.352124    0.474049     0.005394
PD2011   PD        0.698058    0.316445    0.470472     0.005394
PD2012   PD        0.701325    0.351972    0.437145     0.005394
PD2013   PD        0.733404    0.317580    0.438244     0.005394
AU2014   AU        0.731237    0.353624    0.472271     0.007504
AU2015   AU        0.765644    0.319928    0.473306     0.007504
AU2016   AU        0.764623    0.353213    0.437020     0.007504
AU2017   AU        0.795898    0.316426    0.439197     0.007504
PD2018   PD        0.796014    0.354384    0.472334     0.005394
PD2019   PD        0.827199    0.316266    0.472651     0.005394
PD2020   PD        0.830217    0.352517    0.440727     0.005394
PD2021   PD        0.066322    0.389753    0.438151     0.005394
PD2022   PD        0.061783    0.427112    0.473555     0.005394
PD2023   PD        0.095733    0.390051    0.471039     0.005394
PD2024   PD        0.099389    0.422997    0.439583     0.005394
PD2025   PD        0.130035    0.387040    0.438265     0.005394
PD2026   PD        0.130105    0.428605    0.474279     0.005394
PD2027   PD        0.163938    0.390733    0.471704     0.005394
PD2028   PD        0.162851    0.424969    0.436790     0.005394
PD2029   PD        0.198144    0.389317    0.438692     0.005394
AU2030   AU        0.196752    0.425361    0.473819     0.007504
AU2031   AU        0.229037    0.387977    0.474898     0.007504
AU2032   AU        0.230823    0.425490    0.438421     0.007504
AU2033   AU        0.261784    0.392526    0.438501     0.007504
AU2034   AU        0.264428    0.427223    0.471091     0.007504
AU2035   AU        0.296217    0.388628    0.473430     0.007504
AU2036   AU        0.296728    0.423768    0.436924     0.007504
AU2037   AU        0.328393    0.386936    0.439145     0.007504
AU2038   AU        0.328610    0.423206    0.470112     0.007504
AU2039   AU        0.362690    0.388808    0.472366     0.007504
AU2040   AU        0.363399    0.424905    0.436471     0.007504
AU2041   AU        0.397900    0.386816    0.438451     0.007504
AU2042   AU        0.396407    0.424346    0.471842     0.007504
AU2043   AU        0.430565    0.390109    0.472574     0.007504
AU2044   AU        0.430554    0.425491    0.439777     0.007504
AU2045   AU        0.463085    0.388872    0.435919     0.007504
AU2046   AU        0.465587    0.423894    0.471456     0.007504
AU2047   AU        0.499667    0.389251    0.472766     0.007504
AU2048   AU        0.498847    0.424094    0.439534     0.007504
AU2049   AU        0.532499    0.388446    0.439735     0.007504
AU2050   AU        0.529724    0.426488    0.471957     0.007504
AU2051   AU        0.564566    0.388409    0.472238     0.007504
AU2052   AU        0.564824    0.424410    0.437984     0.007504
AU2053   AU        0.600292    0.388746    0.437370     0.007504
AU2054   AU        0.599681    0.425846    0.472022     0.007504
AU2055   AU        0.633209    0.389268    0.472208     0.007504
AU2056   AU        0.635081    0.424319    0.437674     0.007504
AU2057   AU        0.666656    0.389867    0.441756     0.007504
AU2058   AU        0.665067    0.424921    0.473133     0.007504
AU2059   AU        0.699031    0.391035    0.472436     0.007504
AU2060   AU        0.698527    0.425953    0.437326     0.007504
AU2061   AU        0.732975    0.389792    0.437478     0.007504
AU2062   AU        0.731835    0.425193    0.472518     0.007504
AU2063   AU        0.766299    0.388306    0.470727     0.007504
PD2064   PD        0.765999    0.425633    0.438762     0.005394
AU2065   AU        0.797648    0.390708    0.438557     0.007504
PD2066   PD        0.795018    0.424726    0.470826     0.005394
AU2067   AU        0.832758    0.391617    0.470771     0.007504
PD2068   PD        0.830206    0.425710    0.438658     0.005394
PD2069   PD        0.863240    0.391242    0.439581     0.005394
PD2070   PD        0.859755    0.391083    0.507591     0.005394
PD2071   PD        0.065622    0.460894    0.437878     0.005394
PD2072   PD        0.065528    0.528363    0.508095     0.005394
PD2073   PD        0.098261    0.462334    0.472683     0.005394
PD2074   PD        0.098820    0.495530    0.439300     0.005394
AU2075   AU        0.131017    0.460755    0.437175     0.007504
PD2076   PD        0.131285    0.498622    0.468966     0.005394
PD2077   PD        0.165805    0.460265    0.472009     0.005394
AU2078   AU        0.163142    0.496569    0.436841     0.007504
PD2079   PD        0.195863    0.458805    0.440019     0.005394
AU2080   AU        0.196770    0.497164    0.473813     0.007504
AU2081   AU        0.229222    0.459566    0.471250     0.007504
AU2082   AU        0.230162    0.496179    0.437532     0.007504
AU2083   AU        0.264538    0.458528    0.436934     0.007504
AU2084   AU        0.263125    0.495252    0.470776     0.007504
AU2085   AU        0.296362    0.462198    0.471949     0.007504
AU2086   AU        0.296911    0.495645    0.437914     0.007504
AU2087   AU        0.330485    0.462489    0.439824     0.007504
AU2088   AU        0.330020    0.498231    0.469912     0.007504
AU2089   AU        0.364585    0.463451    0.471028     0.007504
AU2090   AU        0.361907    0.497285    0.436676     0.007504
AU2091   AU        0.396971    0.462683    0.437048     0.007504
AU2092   AU        0.395471    0.499578    0.470804     0.007504
AU2093   AU        0.429425    0.458789    0.473021     0.007504
AU2094   AU        0.430773    0.497684    0.440120     0.007504
AU2095   AU        0.463877    0.463892    0.441422     0.007504
AU2096   AU        0.466632    0.499357    0.472536     0.007504
AU2097   AU        0.499726    0.463188    0.471724     0.007504
AU2098   AU        0.497833    0.496347    0.436289     0.007504
AU2099   AU        0.532927    0.461566    0.439206     0.007504
AU2100   AU        0.532685    0.496815    0.472048     0.007504
AU2101   AU        0.564606    0.463964    0.472804     0.007504
AU2102   AU        0.567015    0.496621    0.437945     0.007504
AU2103   AU        0.598481    0.461934    0.439316     0.007504
AU2104   AU        0.597900    0.496737    0.471696     0.007504
AU2105   AU        0.632526    0.464217    0.473868     0.007504
AU2106   AU        0.631984    0.499248    0.439649     0.007504
AU2107   AU        0.664225    0.461908    0.436560     0.007504
AU2108   AU        0.666766    0.499078    0.471510     0.007504
AU2109   AU        0.701199    0.461012    0.473224     0.007504
AU2110   AU        0.698338    0.497782    0.439490     0.007504
AU2111   AU        0.732447    0.460904    0.438499     0.007504
AU2112   AU        0.733405    0.498344    0.472580     0.007504
AU2113   AU        0.763056    0.462062    0.471654     0.007504
AU2114   AU        0.762867    0.497518    0.438718     0.007504
AU2115   AU        0.794194    0.462906    0.439468     0.007504
AU2116   AU        0.796618    0.498590    0.471923     0.007504
PD2117   PD        0.827514    0.460863    0.472625     0.005394
PD2118   PD        0.828189    0.496244    0.438551     0.005394
PD2119   PD        0.860744    0.461667    0.438171     0.005394
PD2120   PD        0.863227    0.497307    0.473957     0.005394
PD2121   PD        0.031754    0.496611    0.441423     0.005394
PD2122   PD        0.102226    0.533106    0.470476     0.005394
PD2123   PD        0.096074    0.568702    0.434553     0.005394
AU2124   AU        0.130188    0.535897    0.436541     0.007504
PD2125   PD        0.131642    0.568299    0.472706     0.005394
AU2126   AU        0.164750    0.532888    0.468815     0.007504
PD2127   PD        0.163357    0.569751    0.437417     0.005394
AU2128   AU        0.197660    0.530917    0.437688     0.007504
AU2129   AU        0.196116    0.570293    0.473026     0.007504
AU2130   AU        0.230716    0.534672    0.471336     0.007504
PD2131   PD        0.229185    0.570688    0.439067     0.005394
AU2132   AU        0.263803    0.530778    0.438022     0.007504
AU2133   AU        0.264529    0.568767    0.470110     0.007504
AU2134   AU        0.296474    0.533388    0.472334     0.007504
AU2135   AU        0.295107    0.569442    0.437163     0.007504
AU2136   AU        0.328048    0.532013    0.437224     0.007504
AU2137   AU        0.329275    0.570748    0.470236     0.007504
AU2138   AU        0.361268    0.533165    0.470518     0.007504
AU2139   AU        0.362363    0.567624    0.438128     0.007504
AU2140   AU        0.397332    0.532461    0.438516     0.007504
AU2141   AU        0.395438    0.568764    0.472447     0.007504
AU2142   AU        0.430892    0.532148    0.472631     0.007504
AU2143   AU        0.432168    0.569262    0.440159     0.007504
AU2144   AU        0.465227    0.534214    0.438412     0.007504
AU2145   AU        0.463982    0.570193    0.471364     0.007504
AU2146   AU        0.500812    0.533657    0.472463     0.007504
AU2147   AU        0.498932    0.571744    0.436780     0.007504
AU2148   AU        0.532486    0.532423    0.440254     0.007504
AU2149   AU        0.532915    0.571432    0.471794     0.007504
AU2150   AU        0.566127    0.532675    0.469498     0.007504
AU2151   AU        0.565243    0.570014    0.439820     0.007504
AU2152   AU        0.598778    0.533544    0.438183     0.007504
AU2153   AU        0.597864    0.569700    0.472712     0.007504
AU2154   AU        0.630842    0.534643    0.471038     0.007504
AU2155   AU        0.632529    0.569771    0.437147     0.007504
AU2156   AU        0.667004    0.534797    0.438371     0.007504
AU2157   AU        0.667486    0.570334    0.471086     0.007504
AU2158   AU        0.699822    0.534960    0.471312     0.007504
AU2159   AU        0.699702    0.570275    0.438562     0.007504
AU2160   AU        0.731123    0.533734    0.439266     0.007504
AU2161   AU        0.732495    0.571895    0.472899     0.007504
AU2162   AU        0.763337    0.533753    0.473406     0.007504
PD2163   PD        0.763775    0.567375    0.438285     0.005394
AU2164   AU        0.795717    0.532905    0.438712     0.007504
PD2165   PD        0.795525    0.569797    0.474918     0.005394
PD2166   PD        0.828076    0.534694    0.472770     0.005394
PD2167   PD        0.830060    0.569377    0.441717     0.005394
PD2168   PD        0.860385    0.569420    0.402984     0.005394
PD2169   PD        0.098604    0.605256    0.472836     0.005394
PD2170   PD        0.100740    0.639835    0.439051     0.005394
PD2171   PD        0.132464    0.602793    0.437336     0.005394
PD2172   PD        0.130777    0.638124    0.471098     0.005394
AU2173   AU        0.164405    0.605593    0.471825     0.007504
PD2174   PD        0.165850    0.640137    0.441004     0.005394
AU2175   AU        0.197215    0.606335    0.437322     0.007504
AU2176   AU        0.196906    0.640342    0.472201     0.007504
AU2177   AU        0.230890    0.607948    0.471596     0.007504
PD2178   PD        0.229715    0.641808    0.437690     0.005394
AU2179   AU        0.262606    0.605590    0.439310     0.007504
AU2180   AU        0.263852    0.640961    0.471880     0.007504
AU2181   AU        0.294506    0.605105    0.470449     0.007504
AU2182   AU        0.296179    0.641307    0.437279     0.007504
AU2183   AU        0.330856    0.605650    0.437010     0.007504
AU2184   AU        0.331465    0.639576    0.471528     0.007504
AU2185   AU        0.365583    0.604587    0.472405     0.007504
AU2186   AU        0.363817    0.640839    0.439663     0.007504
AU2187   AU        0.396916    0.606059    0.439203     0.007504
AU2188   AU        0.396796    0.639787    0.471153     0.007504
AU2189   AU        0.433108    0.606076    0.469863     0.007504
AU2190   AU        0.430599    0.641512    0.437641     0.007504
AU2191   AU        0.466307    0.607699    0.438726     0.007504
AU2192   AU        0.464674    0.642994    0.471543     0.007504
AU2193   AU        0.497931    0.604391    0.472436     0.007504
AU2194   AU        0.498988    0.642731    0.439031     0.007504
AU2195   AU        0.532399    0.606312    0.438112     0.007504
AU2196   AU        0.531088    0.642801    0.470597     0.007504
AU2197   AU        0.565837    0.606300    0.471399     0.007504
AU2198   AU        0.565654    0.642548    0.438124     0.007504
AU2199   AU        0.598872    0.603985    0.437941     0.007504
AU2200   AU        0.599174    0.642411    0.473028     0.007504
AU2201   AU        0.633306    0.607151    0.470899     0.007504
AU2202   AU        0.632779    0.644263    0.439695     0.007504
AU2203   AU        0.668069    0.605708    0.438343     0.007504
AU2204   AU        0.666527    0.642271    0.472224     0.007504
AU2205   AU        0.698931    0.606057    0.472623     0.007504
AU2206   AU        0.698519    0.642795    0.438867     0.007504
PD2207   PD        0.731623    0.605982    0.438157     0.005394
PD2208   PD        0.731083    0.642406    0.474570     0.005394
PD2209   PD        0.762634    0.608614    0.472482     0.005394
AU2210   AU        0.764845    0.640310    0.439280     0.007504
PD2211   PD        0.797475    0.607448    0.439962     0.005394
AU2212   AU        0.796215    0.641892    0.473428     0.007504
PD2213   PD        0.826695    0.607556    0.472841     0.005394
PD2214   PD        0.829185    0.641917    0.442444     0.005394
PD2215   PD        0.132461    0.673921    0.437985     0.005394
PD2216   PD        0.126729    0.712022    0.471392     0.005394
PD2217   PD        0.162528    0.677797    0.471190     0.005394
PD2218   PD        0.164011    0.712623    0.439902     0.005394
AU2219   AU        0.194760    0.677352    0.439985     0.007504
AU2220   AU        0.197474    0.711733    0.471426     0.007504
AU2221   AU        0.230840    0.675237    0.470944     0.007504
AU2222   AU        0.231469    0.712601    0.438088     0.007504
AU2223   AU        0.263681    0.677641    0.439305     0.007504
PD2224   PD        0.263930    0.712035    0.472963     0.005394
AU2225   AU        0.297355    0.676552    0.473118     0.007504
PD2226   PD        0.298612    0.712350    0.436737     0.005394
AU2227   AU        0.330371    0.676754    0.437810     0.007504
AU2228   AU        0.331158    0.713912    0.471028     0.007504
AU2229   AU        0.363964    0.678349    0.471727     0.007504
AU2230   AU        0.365311    0.712138    0.436909     0.007504
AU2231   AU        0.397583    0.678402    0.439442     0.007504
AU2232   AU        0.399909    0.714303    0.472926     0.007504
PD2233   PD        0.432552    0.678889    0.469629     0.005394
AU2234   AU        0.430124    0.713043    0.437674     0.007504
AU2235   AU        0.466119    0.678587    0.438969     0.007504
AU2236   AU        0.463624    0.716049    0.473233     0.007504
AU2237   AU        0.497352    0.676836    0.471311     0.007504
AU2238   AU        0.499907    0.714855    0.439990     0.007504
AU2239   AU        0.531627    0.680851    0.438400     0.007504
AU2240   AU        0.531584    0.714318    0.473267     0.007504
PD2241   PD        0.565103    0.679271    0.472210     0.005394
AU2242   AU        0.564383    0.715990    0.439446     0.007504
AU2243   AU        0.598019    0.675609    0.439631     0.007504
AU2244   AU        0.599412    0.713810    0.473767     0.007504
AU2245   AU        0.633150    0.678947    0.472304     0.007504
PD2246   PD        0.633705    0.713940    0.439338     0.005394
PD2247   PD        0.667164    0.678444    0.439001     0.005394
AU2248   AU        0.666926    0.714467    0.472002     0.007504
AU2249   AU        0.698270    0.678586    0.472049     0.007504
AU2250   AU        0.699011    0.713937    0.439476     0.007504
AU2251   AU        0.730267    0.677498    0.438919     0.007504
AU2252   AU        0.731358    0.712388    0.471788     0.007504
AU2253   AU        0.764319    0.676155    0.470133     0.007504
AU2254   AU        0.762919    0.712791    0.439248     0.007504
PD2255   PD        0.795363    0.677169    0.438311     0.005394
PD2256   PD        0.797056    0.710546    0.470770     0.005394
AU2257   AU        0.167326    0.747634    0.470765     0.007504
AU2258   AU        0.200000    0.745718    0.438312     0.007504
PD2259   PD        0.201351    0.783709    0.473795     0.005394
AU2260   AU        0.231318    0.746060    0.471902     0.007504
PD2261   PD        0.231092    0.783975    0.438079     0.005394
PD2262   PD        0.264054    0.743576    0.440990     0.005394
AU2263   AU        0.263501    0.781255    0.470019     0.007504
AU2264   AU        0.296429    0.747499    0.471869     0.007504
AU2265   AU        0.297260    0.780218    0.438476     0.007504
AU2266   AU        0.331042    0.747300    0.438667     0.007504
AU2267   AU        0.330089    0.781908    0.470490     0.007504
AU2268   AU        0.364086    0.748051    0.469262     0.007504
AU2269   AU        0.363719    0.783926    0.439202     0.007504
AU2270   AU        0.396853    0.750262    0.438415     0.007504
AU2271   AU        0.398246    0.781808    0.472409     0.007504
PD2272   PD        0.432184    0.749435    0.473048     0.005394
AU2273   AU        0.430385    0.784205    0.439593     0.007504
PD2274   PD        0.463658    0.751719    0.438491     0.005394
AU2275   AU        0.464461    0.786235    0.469495     0.007504
AU2276   AU        0.497150    0.750286    0.473175     0.007504
PD2277   PD        0.499203    0.784730    0.436814     0.005394
AU2278   AU        0.531303    0.749835    0.437095     0.007504
PD2279   PD        0.530402    0.783414    0.473490     0.005394
AU2280   AU        0.565754    0.750600    0.470651     0.007504
PD2281   PD        0.564358    0.784236    0.437212     0.005394
AU2282   AU        0.598096    0.748939    0.438862     0.007504
AU2283   AU        0.597892    0.782674    0.470892     0.007504
AU2284   AU        0.633966    0.747677    0.474004     0.007504
AU2285   AU        0.632661    0.782181    0.439503     0.007504
AU2286   AU        0.664275    0.747803    0.439625     0.007504
PD2287   PD        0.666782    0.781950    0.472454     0.005394
AU2288   AU        0.698857    0.748643    0.471417     0.007504
PD2289   PD        0.694815    0.782969    0.438789     0.005394
AU2290   AU        0.731051    0.746870    0.439373     0.007504
PD2291   PD        0.729405    0.781324    0.472236     0.005394
PD2292   PD        0.763292    0.746952    0.471845     0.005394
PD2293   PD        0.232812    0.816624    0.471429     0.005394
PD2294   PD        0.262468    0.817511    0.437602     0.005394
PD2295   PD        0.296848    0.818608    0.470878     0.005394
PD2296   PD        0.225624    0.890068    0.464165     0.005394
PD2297   PD        0.329984    0.817582    0.438393     0.005394
PD2298   PD        0.331242    0.852501    0.471928     0.005394
PD2299   PD        0.363129    0.816984    0.473396     0.005394
AU2300   AU        0.364050    0.850663    0.439431     0.007504
AU2301   AU        0.398043    0.817376    0.439024     0.007504
PD2302   PD        0.396367    0.853633    0.470086     0.005394
AU2303   AU        0.430668    0.820136    0.470951     0.007504
PD2304   PD        0.431938    0.851980    0.436881     0.005394
PD2305   PD        0.463238    0.817038    0.436059     0.005394
AU2306   AU        0.464625    0.851628    0.472613     0.007504
AU2307   AU        0.498696    0.818174    0.471430     0.007504
PD2308   PD        0.496079    0.852708    0.441730     0.005394
PD2309   PD        0.530479    0.815791    0.438634     0.005394
PD2310   PD        0.533271    0.853241    0.472512     0.005394
PD2311   PD        0.565352    0.819539    0.473393     0.005394
PD2312   PD        0.570091    0.856245    0.437629     0.005394
AU2313   AU        0.597863    0.817266    0.438849     0.007504
PD2314   PD        0.597610    0.853230    0.472907     0.005394
PD2315   PD        0.630265    0.818262    0.473182     0.005394
PD2316   PD        0.632558    0.851212    0.440418     0.005394
PD2317   PD        0.664441    0.817767    0.436377     0.005394
PD2318   PD        0.698719    0.817380    0.475564     0.005394
PD2319   PD        0.396654    0.890238    0.439360     0.005394
PD2320   PD        0.431125    0.884441    0.472983     0.005394
PD2321   PD        0.461012    0.891403    0.438438     0.005394
PD2322   PD        0.491246    0.925862    0.505741     0.005394
PD2323   PD        0.524465    0.890345    0.442533     0.005394
PD2324   PD        0.301621    0.032023    0.541318     0.005394
PD2325   PD        0.333085    0.066852    0.542836     0.005394
PD2326   PD        0.362391    0.067298    0.505982     0.005394
PD2327   PD        0.399757    0.066877    0.540119     0.005394
PD2328   PD        0.430287    0.068911    0.504492     0.005394
PD2329   PD        0.466252    0.033184    0.505396     0.005394
PD2330   PD        0.464273    0.067902    0.539357     0.005394
PD2331   PD        0.496204    0.068355    0.506426     0.005394
AU2332   AU        0.530991    0.068811    0.539554     0.007504
PD2333   PD        0.564130    0.066731    0.507778     0.005394
PD2334   PD        0.599550    0.072856    0.538265     0.005394
PD2335   PD        0.630872    0.068973    0.507759     0.005394
PD2336   PD        0.231654    0.138560    0.502261     0.005394
PD2337   PD        0.265472    0.101589    0.506122     0.005394
PD2338   PD        0.265671    0.139699    0.539335     0.005394
PD2339   PD        0.297218    0.105670    0.538111     0.005394
PD2340   PD        0.300799    0.140205    0.506048     0.005394
AU2341   AU        0.328989    0.101631    0.505705     0.007504
AU2342   AU        0.333455    0.139447    0.539280     0.007504
AU2343   AU        0.366712    0.105439    0.537395     0.007504
AU2344   AU        0.362866    0.138591    0.503910     0.007504
PD2345   PD        0.398827    0.106073    0.504155     0.005394
PD2346   PD        0.398107    0.139763    0.539587     0.005394
PD2347   PD        0.430682    0.104527    0.540275     0.005394
AU2348   AU        0.433271    0.137851    0.505229     0.007504
AU2349   AU        0.464429    0.102294    0.505750     0.007504
AU2350   AU        0.464318    0.136007    0.537897     0.007504
AU2351   AU        0.498408    0.105658    0.537870     0.007504
AU2352   AU        0.497388    0.140705    0.505309     0.007504
AU2353   AU        0.532071    0.104705    0.507777     0.007504
PD2354   PD        0.530933    0.138085    0.539639     0.005394
PD2355   PD        0.565506    0.105610    0.539213     0.005394
AU2356   AU        0.565891    0.138741    0.506880     0.007504
AU2357   AU        0.600073    0.104986    0.505744     0.007504
AU2358   AU        0.599314    0.140462    0.537077     0.007504
PD2359   PD        0.631569    0.104741    0.537165     0.005394
AU2360   AU        0.632486    0.140087    0.504594     0.007504
PD2361   PD        0.663000    0.100948    0.503449     0.005394
PD2362   PD        0.664441    0.140371    0.538209     0.005394
PD2363   PD        0.696443    0.141361    0.503798     0.005394
PD2364   PD        0.164320    0.213991    0.504941     0.005394
PD2365   PD        0.200432    0.174974    0.501835     0.005394
PD2366   PD        0.200133    0.209290    0.536026     0.005394
AU2367   AU        0.231890    0.172650    0.537922     0.007504
PD2368   PD        0.233907    0.209036    0.504209     0.005394
AU2369   AU        0.265922    0.172251    0.504956     0.007504
AU2370   AU        0.265973    0.207946    0.538498     0.007504
AU2371   AU        0.299450    0.172666    0.538164     0.007504
AU2372   AU        0.297187    0.207779    0.505748     0.007504
PD2373   PD        0.332007    0.176401    0.503432     0.005394
AU2374   AU        0.330058    0.208835    0.538758     0.007504
PD2375   PD        0.362898    0.174527    0.538283     0.005394
AU2376   AU        0.363734    0.210500    0.506303     0.007504
PD2377   PD        0.397595    0.173313    0.504955     0.005394
PD2378   PD        0.398375    0.210265    0.538086     0.005394
AU2379   AU        0.432599    0.172946    0.538715     0.007504
AU2380   AU        0.431896    0.208985    0.507045     0.007504
AU2381   AU        0.465610    0.173709    0.506056     0.007504
AU2382   AU        0.466422    0.209465    0.539962     0.007504
AU2383   AU        0.497899    0.173265    0.539143     0.007504
AU2384   AU        0.498060    0.209797    0.505353     0.007504
PD2385   PD        0.530149    0.173755    0.503046     0.005394
AU2386   AU        0.531674    0.208772    0.538288     0.007504
PD2387   PD        0.564532    0.175394    0.537804     0.005394
AU2388   AU        0.564714    0.210740    0.504838     0.007504
AU2389   AU        0.601360    0.175845    0.506455     0.007504
PD2390   PD        0.597470    0.208696    0.540527     0.005394
AU2391   AU        0.632583    0.176885    0.539524     0.007504
PD2392   PD        0.633370    0.208662    0.503683     0.005394
PD2393   PD        0.662915    0.175284    0.504158     0.005394
AU2394   AU        0.667958    0.210824    0.537661     0.007504
PD2395   PD        0.699615    0.174585    0.542032     0.005394
PD2396   PD        0.697820    0.208950    0.505507     0.005394
PD2397   PD        0.731620    0.177001    0.505334     0.005394
PD2398   PD        0.729630    0.210362    0.539014     0.005394
PD2399   PD        0.764672    0.208365    0.503960     0.005394
PD2400   PD        0.098494    0.281079    0.502609     0.005394
PD2401   PD        0.131772    0.248616    0.502475     0.005394
AU2402   AU        0.130655    0.282188    0.539511     0.007504
AU2403   AU        0.164141    0.247322    0.537056     0.007504
AU2404   AU        0.165548    0.280024    0.504218     0.007504
PD2405   PD        0.197148    0.246246    0.504274     0.005394
PD2406   PD        0.199755    0.279225    0.539061     0.005394
AU2407   AU        0.231114    0.243131    0.538366     0.007504
PD2408   PD        0.231771    0.281006    0.505271     0.005394
AU2409   AU        0.264102    0.244005    0.506054     0.007504
AU2410   AU        0.264434    0.279718    0.537609     0.007504
AU2411   AU        0.296828    0.244613    0.537648     0.007504
AU2412   AU        0.295650    0.279716    0.504755     0.007504
AU2413   AU        0.329381    0.245929    0.504097     0.007504
PD2414   PD        0.329049    0.282857    0.536217     0.005394
AU2415   AU        0.362549    0.245293    0.540107     0.007504
AU2416   AU        0.365182    0.280173    0.506064     0.007504
AU2417   AU        0.397686    0.246205    0.504964     0.007504
AU2418   AU        0.398289    0.281612    0.539802     0.007504
PD2419   PD        0.434579    0.243768    0.537763     0.005394
AU2420   AU        0.431678    0.280971    0.504345     0.007504
AU2421   AU        0.465871    0.243718    0.505193     0.007504
AU2422   AU        0.465484    0.282260    0.540907     0.007504
AU2423   AU        0.499913    0.243757    0.540565     0.007504
AU2424   AU        0.495637    0.279760    0.506669     0.007504
AU2425   AU        0.531184    0.243642    0.506762     0.007504
AU2426   AU        0.532792    0.279115    0.540779     0.007504
AU2427   AU        0.563814    0.243081    0.539526     0.007504
AU2428   AU        0.563719    0.278112    0.506118     0.007504
AU2429   AU        0.598746    0.244822    0.506845     0.007504
AU2430   AU        0.599254    0.279978    0.538939     0.007504
AU2431   AU        0.633630    0.244197    0.536836     0.007504
AU2432   AU        0.632603    0.282004    0.507385     0.007504
AU2433   AU        0.666212    0.244422    0.504496     0.007504
AU2434   AU        0.667738    0.280479    0.539345     0.007504
AU2435   AU        0.699303    0.246192    0.537836     0.007504
PD2436   PD        0.700232    0.281549    0.504065     0.005394
AU2437   AU        0.731343    0.246273    0.502711     0.007504
PD2438   PD        0.730849    0.280679    0.540486     0.005394
PD2439   PD        0.802730    0.207086    0.532595     0.005394
PD2440   PD        0.763785    0.282750    0.505223     0.005394
PD2441   PD        0.796335    0.244486    0.501337     0.005394
PD2442   PD        0.799433    0.285462    0.540879     0.005394
PD2443   PD        0.830646    0.241379    0.538394     0.005394
PD2444   PD        0.099862    0.317367    0.533455     0.005394
PD2445   PD        0.064675    0.351900    0.540700     0.005394
PD2446   PD        0.132138    0.317622    0.504976     0.005394
PD2447   PD        0.129389    0.353243    0.538917     0.005394
PD2448   PD        0.163383    0.314039    0.536439     0.005394
PD2449   PD        0.165309    0.353838    0.506956     0.005394
AU2450   AU        0.197331    0.318470    0.503264     0.007504
AU2451   AU        0.196020    0.354829    0.539150     0.007504
AU2452   AU        0.228601    0.316093    0.538288     0.007504
AU2453   AU        0.228986    0.352494    0.505326     0.007504
AU2454   AU        0.262815    0.316771    0.505348     0.007504
AU2455   AU        0.262531    0.353773    0.538299     0.007504
AU2456   AU        0.296494    0.318077    0.540780     0.007504
AU2457   AU        0.297050    0.351382    0.505279     0.007504
AU2458   AU        0.329214    0.315723    0.504248     0.007504
AU2459   AU        0.329487    0.353410    0.538151     0.007504
AU2460   AU        0.365618    0.317645    0.537935     0.007504
AU2461   AU        0.364197    0.351754    0.502119     0.007504
AU2462   AU        0.399114    0.317618    0.504421     0.007504
AU2463   AU        0.398263    0.350855    0.536794     0.007504
AU2464   AU        0.431627    0.314646    0.539565     0.007504
AU2465   AU        0.430998    0.354239    0.504382     0.007504
AU2466   AU        0.463491    0.315548    0.504817     0.007504
AU2467   AU        0.466598    0.353369    0.539822     0.007504
AU2468   AU        0.497740    0.316338    0.540022     0.007504
AU2469   AU        0.498312    0.350950    0.505229     0.007504
AU2470   AU        0.531500    0.317383    0.506627     0.007504
AU2471   AU        0.532495    0.354496    0.538978     0.007504
AU2472   AU        0.567281    0.316310    0.540447     0.007504
AU2473   AU        0.565865    0.352745    0.505128     0.007504
AU2474   AU        0.597228    0.316255    0.505949     0.007504
AU2475   AU        0.598962    0.351742    0.538597     0.007504
AU2476   AU        0.632449    0.317586    0.540650     0.007504
AU2477   AU        0.630639    0.352243    0.507136     0.007504
PD2478   PD        0.666817    0.315115    0.506941     0.005394
AU2479   AU        0.665773    0.352061    0.537957     0.007504
AU2480   AU        0.699462    0.316006    0.540378     0.007504
PD2481   PD        0.700473    0.352590    0.507811     0.005394
PD2482   PD        0.733856    0.317915    0.507370     0.005394
PD2483   PD        0.731976    0.352790    0.540454     0.005394
PD2484   PD        0.764304    0.315340    0.536899     0.005394
AU2485   AU        0.766981    0.355229    0.504819     0.007504
PD2486   PD        0.797473    0.316804    0.504649     0.005394
AU2487   AU        0.799489    0.353802    0.536538     0.007504
PD2488   PD        0.831211    0.322750    0.542483     0.005394
PD2489   PD        0.828304    0.355137    0.501595     0.005394
PD2490   PD        0.099428    0.389513    0.539800     0.005394
PD2491   PD        0.100502    0.427161    0.510361     0.005394
PD2492   PD        0.131446    0.392005    0.504313     0.005394
PD2493   PD        0.132234    0.425684    0.540467     0.005394
AU2494   AU        0.163988    0.392107    0.538141     0.007504
AU2495   AU        0.162873    0.425646    0.506827     0.007504
AU2496   AU        0.195293    0.390485    0.506005     0.007504
AU2497   AU        0.197653    0.424931    0.539605     0.007504
AU2498   AU        0.229065    0.390611    0.537922     0.007504
AU2499   AU        0.229862    0.424411    0.505161     0.007504
AU2500   AU        0.262850    0.389721    0.505525     0.007504
AU2501   AU        0.263998    0.425106    0.538306     0.007504
AU2502   AU        0.297592    0.391345    0.536493     0.007504
AU2503   AU        0.296386    0.426514    0.503288     0.007504
AU2504   AU        0.329738    0.388070    0.504832     0.007504
AU2505   AU        0.329065    0.426378    0.538903     0.007504
AU2506   AU        0.362482    0.391348    0.537176     0.007504
AU2507   AU        0.364526    0.426726    0.505245     0.007504
AU2508   AU        0.398008    0.389073    0.504601     0.007504
AU2509   AU        0.397622    0.424785    0.537853     0.007504
AU2510   AU        0.430813    0.388115    0.537302     0.007504
AU2511   AU        0.430316    0.426314    0.505240     0.007504
AU2512   AU        0.465003    0.390254    0.504584     0.007504
AU2513   AU        0.464612    0.425747    0.537663     0.007504
AU2514   AU        0.500219    0.390368    0.538033     0.007504
AU2515   AU        0.498480    0.425523    0.505333     0.007504
AU2516   AU        0.533793    0.390725    0.506154     0.007504
AU2517   AU        0.531764    0.427194    0.536513     0.007504
AU2518   AU        0.565897    0.390216    0.540448     0.007504
AU2519   AU        0.566806    0.425163    0.505043     0.007504
AU2520   AU        0.599415    0.387722    0.504933     0.007504
AU2521   AU        0.599663    0.427132    0.538171     0.007504
AU2522   AU        0.634064    0.388666    0.540517     0.007504
AU2523   AU        0.633881    0.425650    0.506418     0.007504
AU2524   AU        0.665399    0.390245    0.507891     0.007504
AU2525   AU        0.664727    0.424596    0.539897     0.007504
AU2526   AU        0.696932    0.388287    0.537420     0.007504
AU2527   AU        0.699376    0.425681    0.505949     0.007504
AU2528   AU        0.733622    0.389734    0.505457     0.007504
AU2529   AU        0.730484    0.423867    0.539643     0.007504
PD2530   PD        0.764390    0.390138    0.538458     0.005394
AU2531   AU        0.766171    0.425583    0.504250     0.007504
AU2532   AU        0.797088    0.390092    0.504944     0.007504
PD2533   PD        0.798568    0.423580    0.538544     0.005394
PD2534   PD        0.830504    0.388722    0.541036     0.005394
PD2535   PD        0.829566    0.424167    0.503202     0.005394
PD2536   PD        0.065963    0.460792    0.503028     0.005394
PD2537   PD        0.097908    0.463403    0.535004     0.005394
PD2538   PD        0.100283    0.497844    0.504478     0.005394
AU2539   AU        0.131844    0.462549    0.506064     0.007504
PD2540   PD        0.132142    0.496721    0.537610     0.005394
AU2541   AU        0.164708    0.461104    0.538462     0.007504
PD2542   PD        0.165000    0.497037    0.505506     0.005394
AU2543   AU        0.198557    0.462454    0.506213     0.007504
AU2544   AU        0.197243    0.496642    0.539427     0.007504
AU2545   AU        0.232105    0.460069    0.538501     0.007504
AU2546   AU        0.231149    0.498356    0.504235     0.007504
AU2547   AU        0.264399    0.460980    0.504217     0.007504
AU2548   AU        0.262493    0.500091    0.538175     0.007504
AU2549   AU        0.296234    0.461452    0.538409     0.007504
AU2550   AU        0.294309    0.497577    0.504569     0.007504
AU2551   AU        0.329629    0.462169    0.503839     0.007504
AU2552   AU        0.328668    0.497453    0.539099     0.007504
AU2553   AU        0.364086    0.461840    0.539843     0.007504
AU2554   AU        0.360516    0.498664    0.505020     0.007504
AU2555   AU        0.397721    0.464469    0.503495     0.007504
AU2556   AU        0.396955    0.496402    0.540321     0.007504
AU2557   AU        0.431209    0.461739    0.540950     0.007504
AU2558   AU        0.430381    0.498166    0.504716     0.007504
AU2559   AU        0.465221    0.460775    0.504394     0.007504
AU2560   AU        0.465968    0.500195    0.536992     0.007504
AU2561   AU        0.497392    0.461339    0.540762     0.007504
AU2562   AU        0.500528    0.497313    0.506164     0.007504
AU2563   AU        0.532000    0.461276    0.505614     0.007504
AU2564   AU        0.531439    0.497745    0.540124     0.007504
AU2565   AU        0.564331    0.459957    0.538320     0.007504
AU2566   AU        0.565273    0.497961    0.507290     0.007504
AU2567   AU        0.598610    0.462583    0.507069     0.007504
AU2568   AU        0.599956    0.498189    0.541116     0.007504
AU2569   AU        0.631414    0.461202    0.539509     0.007504
AU2570   AU        0.631557    0.498765    0.507550     0.007504
AU2571   AU        0.667867    0.461320    0.506938     0.007504
AU2572   AU        0.667194    0.496116    0.538466     0.007504
AU2573   AU        0.700295    0.459904    0.538913     0.007504
AU2574   AU        0.699436    0.499179    0.505543     0.007504
AU2575   AU        0.731157    0.462529    0.506342     0.007504
AU2576   AU        0.729513    0.497286    0.537924     0.007504
PD2577   PD        0.763961    0.464746    0.536319     0.005394
AU2578   AU        0.764461    0.498838    0.506016     0.007504
PD2579   PD        0.795325    0.463395    0.503988     0.005394
PD2580   PD        0.797125    0.499601    0.536206     0.005394
PD2581   PD        0.831728    0.463130    0.536296     0.005394
PD2582   PD        0.826991    0.496745    0.503956     0.005394
PD2583   PD        0.861605    0.459212    0.504212     0.005394
PD2584   PD        0.099574    0.533201    0.538694     0.005394
PD2585   PD        0.101716    0.569988    0.508030     0.005394
PD2586   PD        0.131575    0.533336    0.505399     0.005394
AU2587   AU        0.133637    0.566948    0.539218     0.007504
AU2588   AU        0.165145    0.532816    0.538658     0.007504
AU2589   AU        0.163852    0.569270    0.504623     0.007504
AU2590   AU        0.195845    0.535181    0.506518     0.007504
AU2591   AU        0.198030    0.569737    0.536876     0.007504
AU2592   AU        0.228783    0.533930    0.539812     0.007504
AU2593   AU        0.230887    0.568648    0.504841     0.007504
AU2594   AU        0.262912    0.533271    0.503607     0.007504
AU2595   AU        0.261999    0.568203    0.537491     0.007504
AU2596   AU        0.297005    0.534207    0.539245     0.007504
AU2597   AU        0.294943    0.571520    0.504364     0.007504
AU2598   AU        0.327755    0.534346    0.505809     0.007504
AU2599   AU        0.330598    0.570686    0.538705     0.007504
AU2600   AU        0.364299    0.532702    0.539906     0.007504
AU2601   AU        0.363085    0.568250    0.503384     0.007504
AU2602   AU        0.396807    0.532478    0.505129     0.007504
AU2603   AU        0.395509    0.569037    0.536375     0.007504
AU2604   AU        0.429280    0.534538    0.538724     0.007504
AU2605   AU        0.430906    0.568912    0.503758     0.007504
AU2606   AU        0.466388    0.535117    0.505350     0.007504
AU2607   AU        0.465276    0.569784    0.540315     0.007504
AU2608   AU        0.497856    0.535213    0.538887     0.007504
AU2609   AU        0.501984    0.570572    0.506521     0.007504
AU2610   AU        0.533037    0.532197    0.506356     0.007504
AU2611   AU        0.533832    0.569521    0.541468     0.007504
AU2612   AU        0.566128    0.534743    0.541063     0.007504
AU2613   AU        0.564941    0.570529    0.506223     0.007504
AU2614   AU        0.598095    0.532801    0.504947     0.007504
AU2615   AU        0.598153    0.570797    0.540163     0.007504
AU2616   AU        0.633206    0.533273    0.539983     0.007504
AU2617   AU        0.631585    0.570834    0.506086     0.007504
AU2618   AU        0.666356    0.535559    0.506210     0.007504
AU2619   AU        0.665775    0.571295    0.539515     0.007504
AU2620   AU        0.696241    0.535396    0.538884     0.007504
AU2621   AU        0.699119    0.568552    0.504255     0.007504
AU2622   AU        0.732120    0.534130    0.505809     0.007504
AU2623   AU        0.730327    0.570469    0.539694     0.007504
PD2624   PD        0.766343    0.535618    0.536360     0.005394
PD2625   PD        0.761561    0.572413    0.507099     0.005394
AU2626   AU        0.796808    0.532779    0.504615     0.007504
PD2627   PD        0.795703    0.571429    0.535087     0.005394
PD2628   PD        0.830784    0.533161    0.534173     0.005394
PD2629   PD        0.831654    0.571296    0.505103     0.005394
PD2630   PD        0.097782    0.609549    0.538779     0.005394
PD2631   PD        0.099346    0.645172    0.503414     0.005394
PD2632   PD        0.133110    0.607320    0.506536     0.005394
PD2633   PD        0.131087    0.639280    0.539472     0.005394
PD2634   PD        0.163722    0.605978    0.538068     0.005394
AU2635   AU        0.164816    0.641796    0.504604     0.007504
AU2636   AU        0.195446    0.604173    0.506303     0.007504
AU2637   AU        0.196738    0.642033    0.538205     0.007504
AU2638   AU        0.229631    0.606339    0.536857     0.007504
AU2639   AU        0.228136    0.642747    0.503934     0.007504
AU2640   AU        0.260682    0.605669    0.504774     0.007504
AU2641   AU        0.262319    0.641667    0.538637     0.007504
AU2642   AU        0.294771    0.604623    0.539615     0.007504
PD2643   PD        0.295984    0.638351    0.504356     0.005394
AU2644   AU        0.330491    0.604810    0.504806     0.007504
AU2645   AU        0.333193    0.640604    0.538266     0.007504
AU2646   AU        0.363383    0.605099    0.538253     0.007504
AU2647   AU        0.362474    0.641339    0.503531     0.007504
AU2648   AU        0.397488    0.605494    0.505325     0.007504
AU2649   AU        0.395465    0.640930    0.536017     0.007504
AU2650   AU        0.429093    0.604979    0.538353     0.007504
AU2651   AU        0.431895    0.642984    0.503836     0.007504
AU2652   AU        0.465449    0.606679    0.507433     0.007504
AU2653   AU        0.465483    0.643326    0.538879     0.007504
AU2654   AU        0.498165    0.604598    0.540090     0.007504
AU2655   AU        0.497473    0.641579    0.506522     0.007504
AU2656   AU        0.531919    0.607959    0.506112     0.007504
AU2657   AU        0.531777    0.641670    0.539376     0.007504
AU2658   AU        0.565292    0.605943    0.539827     0.007504
AU2659   AU        0.562685    0.643527    0.505472     0.007504
AU2660   AU        0.598388    0.606995    0.505973     0.007504
AU2661   AU        0.599745    0.643430    0.539029     0.007504
AU2662   AU        0.631884    0.605838    0.540886     0.007504
AU2663   AU        0.633798    0.639658    0.506316     0.007504
PD2664   PD        0.667090    0.603705    0.503962     0.005394
AU2665   AU        0.665160    0.640989    0.537029     0.007504
AU2666   AU        0.698726    0.605348    0.537409     0.007504
AU2667   AU        0.699251    0.643736    0.505833     0.007504
AU2668   AU        0.732270    0.608117    0.505435     0.007504
AU2669   AU        0.730975    0.641788    0.539183     0.007504
PD2670   PD        0.765459    0.606691    0.540316     0.005394
AU2671   AU        0.762522    0.643489    0.506379     0.007504
PD2672   PD        0.796289    0.608539    0.504147     0.005394
PD2673   PD        0.796677    0.641790    0.539140     0.005394
PD2674   PD        0.827976    0.606791    0.539234     0.005394
PD2675   PD        0.829182    0.639808    0.504823     0.005394
PD2676   PD        0.131269    0.675660    0.501707     0.005394
PD2677   PD        0.162118    0.674844    0.538526     0.005394
PD2678   PD        0.166014    0.711382    0.504757     0.005394
PD2679   PD        0.198479    0.676967    0.502567     0.005394
AU2680   AU        0.198346    0.709895    0.538136     0.007504
AU2681   AU        0.229851    0.674971    0.538202     0.007504
AU2682   AU        0.229879    0.712172    0.504717     0.007504
AU2683   AU        0.262939    0.676964    0.505376     0.007504
AU2684   AU        0.264922    0.712651    0.536453     0.007504
PD2685   PD        0.296926    0.678201    0.540074     0.005394
AU2686   AU        0.296086    0.710849    0.504490     0.007504
AU2687   AU        0.330529    0.678073    0.503972     0.007504
PD2688   PD        0.329575    0.712949    0.538075     0.005394
AU2689   AU        0.365080    0.677636    0.539524     0.007504
AU2690   AU        0.364789    0.712656    0.505854     0.007504
AU2691   AU        0.397597    0.677285    0.505036     0.007504
AU2692   AU        0.397614    0.712343    0.539226     0.007504
AU2693   AU        0.431941    0.678097    0.539025     0.007504
AU2694   AU        0.430749    0.711865    0.505072     0.007504
AU2695   AU        0.466237    0.677867    0.506686     0.007504
AU2696   AU        0.465011    0.714950    0.537092     0.007504
AU2697   AU        0.497868    0.677888    0.540804     0.007504
PD2698   PD        0.499127    0.714760    0.504726     0.005394
AU2699   AU        0.530957    0.680446    0.505171     0.007504
AU2700   AU        0.532134    0.715126    0.538703     0.007504
AU2701   AU        0.566057    0.675903    0.539223     0.007504
AU2702   AU        0.565455    0.714937    0.507020     0.007504
AU2703   AU        0.599829    0.677395    0.505392     0.007504
PD2704   PD        0.600972    0.710790    0.536714     0.005394
AU2705   AU        0.633972    0.676483    0.537693     0.007504
AU2706   AU        0.633050    0.712679    0.506930     0.007504
AU2707   AU        0.665812    0.676825    0.505579     0.007504
AU2708   AU        0.665844    0.710314    0.540019     0.007504
AU2709   AU        0.697793    0.675600    0.538898     0.007504
AU2710   AU        0.699788    0.713417    0.504724     0.007504
AU2711   AU        0.730776    0.677942    0.505196     0.007504
PD2712   PD        0.730177    0.712479    0.536710     0.005394
AU2713   AU        0.762895    0.677464    0.537552     0.007504
PD2714   PD        0.763267    0.710612    0.502226     0.005394
PD2715   PD        0.795110    0.677600    0.504967     0.005394
AU2716   AU        0.198559    0.748341    0.504894     0.007504
PD2717   PD        0.232724    0.746370    0.536420     0.005394
PD2718   PD        0.232444    0.781292    0.504817     0.005394
PD2719   PD        0.263983    0.746814    0.505284     0.005394
PD2720   PD        0.264157    0.785468    0.541327     0.005394
AU2721   AU        0.298157    0.747387    0.541463     0.007504
PD2722   PD        0.297340    0.784091    0.505181     0.005394
AU2723   AU        0.330926    0.748175    0.505352     0.007504
PD2724   PD        0.329983    0.781748    0.541008     0.005394
AU2725   AU        0.364609    0.749310    0.539084     0.007504
PD2726   PD        0.361905    0.780439    0.505999     0.005394
AU2727   AU        0.397485    0.749058    0.506146     0.007504
PD2728   PD        0.397986    0.783725    0.539953     0.005394
AU2729   AU        0.431518    0.747364    0.537147     0.007504
AU2730   AU        0.430967    0.784832    0.503717     0.007504
AU2731   AU        0.464502    0.750584    0.505774     0.007504
PD2732   PD        0.464900    0.782697    0.539304     0.005394
AU2733   AU        0.497792    0.748577    0.539820     0.007504
AU2734   AU        0.498592    0.784131    0.505632     0.007504
AU2735   AU        0.531793    0.748632    0.504435     0.007504
AU2736   AU        0.533854    0.782239    0.539598     0.007504
AU2737   AU        0.567091    0.749337    0.539316     0.007504
AU2738   AU        0.565163    0.782801    0.504016     0.007504
AU2739   AU        0.599227    0.750253    0.505261     0.007504
AU2740   AU        0.598227    0.782669    0.540292     0.007504
AU2741   AU        0.631570    0.747931    0.538378     0.007504
PD2742   PD        0.630546    0.784719    0.502932     0.005394
AU2743   AU        0.667394    0.749052    0.505484     0.007504
PD2744   PD        0.663566    0.783421    0.535711     0.005394
PD2745   PD        0.696664    0.748342    0.537430     0.005394
PD2746   PD        0.698521    0.782940    0.504382     0.005394
PD2747   PD        0.732597    0.746932    0.504730     0.005394
PD2748   PD        0.260556    0.817189    0.502970     0.005394
PD2749   PD        0.296811    0.819092    0.539546     0.005394
PD2750   PD        0.285624    0.887051    0.537868     0.005394
PD2751   PD        0.328966    0.816740    0.506635     0.005394
PD2752   PD        0.330346    0.849795    0.538617     0.005394
PD2753   PD        0.364903    0.815594    0.537816     0.005394
PD2754   PD        0.360940    0.847453    0.506951     0.005394
PD2755   PD        0.398590    0.819199    0.501804     0.005394
PD2756   PD        0.396492    0.854361    0.536545     0.005394
PD2757   PD        0.431008    0.819277    0.538874     0.005394
PD2758   PD        0.431018    0.853895    0.506687     0.005394
AU2759   AU        0.463616    0.817671    0.505941     0.007504
PD2760   PD        0.466056    0.852957    0.539646     0.005394
PD2761   PD        0.500568    0.819170    0.537273     0.005394
PD2762   PD        0.498471    0.855461    0.502445     0.005394
AU2763   AU        0.532431    0.817329    0.505853     0.007504
PD2764   PD        0.531675    0.850900    0.538009     0.005394
PD2765   PD        0.565774    0.818343    0.538042     0.005394
PD2766   PD        0.566458    0.851705    0.506116     0.005394
PD2767   PD        0.598769    0.815894    0.506399     0.005394
PD2768   PD        0.599941    0.850595    0.538726     0.005394
PD2769   PD        0.629974    0.816104    0.538326     0.005394
PD2770   PD        0.632607    0.851190    0.503167     0.005394
PD2771   PD        0.664169    0.819236    0.502135     0.005394
PD2772   PD        0.467002    0.886531    0.505755     0.005394
PD2773   PD        0.364321    0.070613    0.569053     0.005394
PD2774   PD        0.399511    0.068058    0.603323     0.005394
PD2775   PD        0.432302    0.067215    0.570814     0.005394
PD2776   PD        0.464672    0.069645    0.604352     0.005394
PD2777   PD        0.499310    0.070355    0.570855     0.005394
PD2778   PD        0.595312    0.067173    0.608095     0.005394
PD2779   PD        0.567275    0.070950    0.570788     0.005394
PD2780   PD        0.235172    0.138397    0.570853     0.005394
PD2781   PD        0.266267    0.138426    0.602090     0.005394
PD2782   PD        0.296019    0.103540    0.605117     0.005394
PD2783   PD        0.297407    0.139203    0.572389     0.005394
PD2784   PD        0.330893    0.104969    0.570717     0.005394
PD2785   PD        0.329774    0.138663    0.605897     0.005394
PD2786   PD        0.325763    0.064307    0.607459     0.005394
PD2787   PD        0.365850    0.137455    0.572656     0.005394
PD2788   PD        0.399339    0.103737    0.573000     0.005394
AU2789   AU        0.397557    0.138277    0.606791     0.007504
AU2790   AU        0.431832    0.106291    0.603450     0.007504
AU2791   AU        0.432297    0.140332    0.572976     0.007504
AU2792   AU        0.466841    0.104848    0.571147     0.007504
AU2793   AU        0.465920    0.141162    0.605885     0.007504
PD2794   PD        0.500472    0.103656    0.603771     0.005394
AU2795   AU        0.499161    0.138560    0.573776     0.007504
AU2796   AU        0.532708    0.104898    0.570772     0.007504
PD2797   PD        0.536191    0.137511    0.606793     0.005394
PD2798   PD        0.564573    0.104582    0.604427     0.005394
AU2799   AU        0.564218    0.139721    0.570805     0.007504
PD2800   PD        0.598802    0.107536    0.571077     0.005394
PD2801   PD        0.597093    0.139600    0.606802     0.005394
PD2802   PD        0.632089    0.103984    0.602648     0.005394
AU2803   AU        0.632590    0.140211    0.570546     0.007504
PD2804   PD        0.663470    0.140525    0.603008     0.005394
PD2805   PD        0.762537    0.139614    0.576407     0.005394
PD2806   PD        0.162876    0.208673    0.563613     0.005394
PD2807   PD        0.198487    0.172842    0.568590     0.005394
PD2808   PD        0.201303    0.206558    0.605496     0.005394
PD2809   PD        0.235053    0.171433    0.604574     0.005394
AU2810   AU        0.232007    0.207134    0.569777     0.007504
AU2811   AU        0.265438    0.175049    0.571240     0.007504
AU2812   AU        0.264446    0.209867    0.604217     0.007504
AU2813   AU        0.297894    0.174943    0.604359     0.007504
AU2814   AU        0.297889    0.208149    0.571441     0.007504
AU2815   AU        0.330284    0.174644    0.572112     0.007504
AU2816   AU        0.331420    0.211125    0.605690     0.007504
PD2817   PD        0.362988    0.172845    0.606134     0.005394
AU2818   AU        0.362437    0.207122    0.572324     0.007504
AU2819   AU        0.400449    0.175348    0.571037     0.007504
PD2820   PD        0.397425    0.209746    0.604255     0.005394
AU2821   AU        0.431286    0.172955    0.605702     0.007504
PD2822   PD        0.432584    0.209683    0.570298     0.005394
AU2823   AU        0.466683    0.172602    0.572397     0.007504
AU2824   AU        0.464788    0.208348    0.607802     0.007504
AU2825   AU        0.498429    0.173670    0.606684     0.007504
AU2826   AU        0.498085    0.210153    0.574355     0.007504
AU2827   AU        0.531903    0.175320    0.571790     0.007504
AU2828   AU        0.532129    0.208700    0.606343     0.007504
PD2829   PD        0.564302    0.175167    0.608291     0.005394
PD2830   PD        0.564466    0.208778    0.571338     0.005394
PD2831   PD        0.597443    0.173565    0.569152     0.005394
PD2832   PD        0.596615    0.208586    0.605225     0.005394
PD2833   PD        0.631706    0.173285    0.603629     0.005394
AU2834   AU        0.632235    0.212270    0.570874     0.007504
PD2835   PD        0.662773    0.175671    0.573353     0.005394
PD2836   PD        0.664164    0.213270    0.605281     0.005394
PD2837   PD        0.701965    0.175436    0.604504     0.005394
PD2838   PD        0.696812    0.209092    0.572812     0.005394
PD2839   PD        0.730475    0.177429    0.571675     0.005394
PD2840   PD        0.731402    0.212188    0.604240     0.005394
PD2841   PD        0.764812    0.207968    0.573489     0.005394
PD2842   PD        0.131390    0.286482    0.605289     0.005394
PD2843   PD        0.160457    0.249640    0.604715     0.005394
PD2844   PD        0.166939    0.282882    0.570515     0.005394
AU2845   AU        0.197413    0.243648    0.570990     0.007504
PD2846   PD        0.198845    0.279422    0.604160     0.005394
PD2847   PD        0.231204    0.243159    0.602712     0.005394
AU2848   AU        0.229437    0.280977    0.571536     0.007504
PD2849   PD        0.261738    0.241872    0.570225     0.005394
PD2850   PD        0.261882    0.281860    0.602339     0.005394
AU2851   AU        0.297450    0.241599    0.604081     0.007504
PD2852   PD        0.296631    0.280356    0.570765     0.005394
PD2853   PD        0.331553    0.243714    0.572117     0.005394
PD2854   PD        0.330792    0.276261    0.605345     0.005394
AU2855   AU        0.366601    0.244564    0.606928     0.007504
AU2856   AU        0.364061    0.281149    0.572404     0.007504
AU2857   AU        0.396354    0.245257    0.572155     0.007504
AU2858   AU        0.396789    0.280343    0.605792     0.007504
PD2859   PD        0.431523    0.245273    0.607822     0.005394
AU2860   AU        0.430720    0.278279    0.573882     0.007504
AU2861   AU        0.466252    0.244967    0.573508     0.007504
AU2862   AU        0.464056    0.281379    0.606891     0.007504
AU2863   AU        0.499253    0.244085    0.609023     0.007504
AU2864   AU        0.499985    0.279594    0.574698     0.007504
AU2865   AU        0.531325    0.244437    0.573974     0.007504
AU2866   AU        0.531339    0.282112    0.607223     0.007504
AU2867   AU        0.565365    0.244939    0.608410     0.007504
AU2868   AU        0.564426    0.280125    0.574246     0.007504
PD2869   PD        0.599400    0.248417    0.572697     0.005394
PD2870   PD        0.597629    0.280258    0.608338     0.005394
PD2871   PD        0.634385    0.248320    0.605065     0.005394
AU2872   AU        0.635856    0.281608    0.572265     0.007504
AU2873   AU        0.666098    0.246660    0.573428     0.007504
AU2874   AU        0.667963    0.282072    0.606193     0.007504
AU2875   AU        0.697461    0.246250    0.607690     0.007504
PD2876   PD        0.698076    0.280333    0.572664     0.005394
AU2877   AU        0.730500    0.246750    0.573166     0.007504
AU2878   AU        0.730073    0.280820    0.606819     0.007504
PD2879   PD        0.762905    0.248158    0.603562     0.005394
PD2880   PD        0.765317    0.283660    0.574661     0.005394
PD2881   PD        0.817701    0.259911    0.579570     0.005394
PD2882   PD        0.098689    0.352362    0.571466     0.005394
PD2883   PD        0.130723    0.318407    0.568333     0.005394
PD2884   PD        0.131456    0.353056    0.604325     0.005394
PD2885   PD        0.164020    0.318163    0.607064     0.005394
PD2886   PD        0.164065    0.354307    0.570204     0.005394
PD2887   PD        0.197883    0.317933    0.570592     0.005394
PD2888   PD        0.198343    0.354593    0.603213     0.005394
AU2889   AU        0.230737    0.317789    0.603514     0.007504
AU2890   AU        0.232626    0.353256    0.570589     0.007504
AU2891   AU        0.262125    0.317750    0.569746     0.007504
PD2892   PD        0.263649    0.355958    0.602921     0.005394
PD2893   PD        0.293974    0.317374    0.604835     0.005394
AU2894   AU        0.297066    0.354810    0.570769     0.007504
PD2895   PD        0.329852    0.317849    0.571365     0.005394
PD2896   PD        0.329487    0.355799    0.603021     0.005394
PD2897   PD        0.366331    0.318668    0.604274     0.005394
AU2898   AU        0.365294    0.353399    0.570911     0.007504
AU2899   AU        0.398644    0.315409    0.573320     0.007504
AU2900   AU        0.398924    0.354256    0.606187     0.007504
AU2901   AU        0.429039    0.316716    0.607536     0.007504
AU2902   AU        0.430706    0.350223    0.571366     0.007504
AU2903   AU        0.464854    0.314812    0.574154     0.007504
AU2904   AU        0.463343    0.353283    0.603880     0.007504
AU2905   AU        0.498907    0.316407    0.607554     0.007504
AU2906   AU        0.499765    0.352275    0.572015     0.007504
AU2907   AU        0.532517    0.316290    0.571770     0.007504
AU2908   AU        0.531902    0.352383    0.605825     0.007504
AU2909   AU        0.563842    0.317559    0.605415     0.007504
AU2910   AU        0.566010    0.352802    0.573291     0.007504
AU2911   AU        0.599634    0.315913    0.571011     0.007504
AU2912   AU        0.599270    0.352128    0.605785     0.007504
AU2913   AU        0.633325    0.315795    0.605181     0.007504
AU2914   AU        0.634333    0.351273    0.573950     0.007504
AU2915   AU        0.666873    0.314945    0.572345     0.007504
AU2916   AU        0.667085    0.352528    0.605892     0.007504
AU2917   AU        0.700109    0.317998    0.607100     0.007504
AU2918   AU        0.698448    0.350742    0.574764     0.007504
PD2919   PD        0.733164    0.319557    0.574283     0.005394
PD2920   PD        0.731721    0.354985    0.607776     0.005394
AU2921   AU        0.762683    0.316559    0.607461     0.007504
PD2922   PD        0.765515    0.355599    0.574074     0.005394
PD2923   PD        0.794838    0.320286    0.573277     0.005394
PD2924   PD        0.799866    0.354859    0.608066     0.005394
PD2925   PD        0.836038    0.331580    0.588600     0.005394
PD2926   PD        0.097473    0.387481    0.602623     0.005394
PD2927   PD        0.097912    0.428478    0.570679     0.005394
PD2928   PD        0.129950    0.390991    0.572583     0.005394
PD2929   PD        0.129510    0.427459    0.604053     0.005394
PD2930   PD        0.165034    0.389612    0.601069     0.005394
PD2931   PD        0.164262    0.424687    0.572758     0.005394
AU2932   AU        0.198859    0.389743    0.571658     0.007504
AU2933   AU        0.197184    0.426445    0.604179     0.007504
PD2934   PD        0.229963    0.391089    0.605183     0.005394
AU2935   AU        0.230633    0.425970    0.572133     0.007504
AU2936   AU        0.263053    0.390469    0.569755     0.007504
AU2937   AU        0.264609    0.426501    0.603794     0.007504
AU2938   AU        0.296542    0.389596    0.602676     0.007504
AU2939   AU        0.295086    0.426560    0.571631     0.007504
AU2940   AU        0.329211    0.388964    0.570750     0.007504
AU2941   AU        0.331503    0.425453    0.603781     0.007504
AU2942   AU        0.365047    0.390560    0.605920     0.007504
AU2943   AU        0.363097    0.425782    0.571311     0.007504
AU2944   AU        0.396921    0.390063    0.572004     0.007504
AU2945   AU        0.397782    0.424250    0.607296     0.007504
AU2946   AU        0.431394    0.390198    0.605128     0.007504
AU2947   AU        0.429270    0.424248    0.572799     0.007504
AU2948   AU        0.463861    0.388171    0.572850     0.007504
AU2949   AU        0.464414    0.426240    0.605244     0.007504
AU2950   AU        0.495934    0.386923    0.604789     0.007504
AU2951   AU        0.498384    0.422452    0.571420     0.007504
AU2952   AU        0.532829    0.392325    0.571570     0.007504
AU2953   AU        0.531703    0.424628    0.606508     0.007504
AU2954   AU        0.564911    0.389068    0.605393     0.007504
AU2955   AU        0.567210    0.426445    0.572268     0.007504
AU2956   AU        0.601353    0.388934    0.573475     0.007504
AU2957   AU        0.601714    0.426364    0.606396     0.007504
AU2958   AU        0.634389    0.388177    0.605256     0.007504
AU2959   AU        0.633034    0.424808    0.572798     0.007504
AU2960   AU        0.666918    0.388385    0.573084     0.007504
AU2961   AU        0.665686    0.424949    0.606906     0.007504
AU2962   AU        0.698204    0.388805    0.607602     0.007504
PD2963   PD        0.697858    0.424968    0.570808     0.005394
AU2964   AU        0.728770    0.387848    0.574097     0.007504
AU2965   AU        0.730120    0.424026    0.606309     0.007504
PD2966   PD        0.762339    0.388823    0.605758     0.005394
PD2967   PD        0.764196    0.424719    0.575723     0.005394
PD2968   PD        0.796066    0.390155    0.575195     0.005394
PD2969   PD        0.797808    0.421966    0.606629     0.005394
PD2970   PD        0.832718    0.387227    0.607910     0.005394
PD2971   PD        0.876480    0.420453    0.593906     0.005394
PD2972   PD        0.085379    0.458787    0.663335     0.005394
PD2973   PD        0.099088    0.496419    0.571688     0.005394
PD2974   PD        0.133042    0.462202    0.572074     0.005394
PD2975   PD        0.133071    0.495561    0.604226     0.005394
PD2976   PD        0.166852    0.460946    0.604140     0.005394
AU2977   AU        0.164235    0.498243    0.571819     0.007504
AU2978   AU        0.198918    0.463005    0.571602     0.007504
AU2979   AU        0.194260    0.496425    0.604816     0.007504
AU2980   AU        0.230439    0.462007    0.604617     0.007504
AU2981   AU        0.228850    0.497962    0.573584     0.007504
AU2982   AU        0.263256    0.462611    0.572349     0.007504
AU2983   AU        0.263379    0.497715    0.603382     0.007504
AU2984   AU        0.297300    0.461228    0.605674     0.007504
AU2985   AU        0.297882    0.497908    0.570907     0.007504
AU2986   AU        0.328503    0.463031    0.572909     0.007504
AU2987   AU        0.332106    0.497902    0.607447     0.007504
AU2988   AU        0.362874    0.460521    0.605844     0.007504
AU2989   AU        0.363597    0.496977    0.571826     0.007504
AU2990   AU        0.396256    0.459731    0.572394     0.007504
AU2991   AU        0.398014    0.500483    0.606215     0.007504
AU2992   AU        0.433213    0.462047    0.605840     0.007504
AU2993   AU        0.429828    0.496051    0.574194     0.007504
AU2994   AU        0.464505    0.459736    0.573318     0.007504
AU2995   AU        0.463733    0.496772    0.607389     0.007504
AU2996   AU        0.496218    0.461041    0.606199     0.007504
AU2997   AU        0.496682    0.496885    0.572941     0.007504
AU2998   AU        0.532689    0.459938    0.571516     0.007504
AU2999   AU        0.533651    0.497569    0.607556     0.007504
AU3000   AU        0.565817    0.462951    0.605107     0.007504
AU3001   AU        0.564968    0.498836    0.571579     0.007504
AU3002   AU        0.600948    0.460393    0.573257     0.007504
AU3003   AU        0.600170    0.496497    0.607564     0.007504
AU3004   AU        0.633187    0.460339    0.606652     0.007504
AU3005   AU        0.634292    0.498194    0.573550     0.007504
AU3006   AU        0.664519    0.461988    0.573433     0.007504
AU3007   AU        0.666034    0.498095    0.607244     0.007504
PD3008   PD        0.697795    0.463514    0.605331     0.005394
PD3009   PD        0.698580    0.496936    0.574157     0.005394
PD3010   PD        0.728866    0.463291    0.572713     0.005394
PD3011   PD        0.731782    0.497767    0.606738     0.005394
PD3012   PD        0.762790    0.464086    0.606352     0.005394
PD3013   PD        0.765385    0.501776    0.566730     0.005394
PD3014   PD        0.795924    0.459126    0.570873     0.005394
PD3015   PD        0.793249    0.502503    0.605224     0.005394
PD3016   PD        0.827236    0.461901    0.605704     0.005394
PD3017   PD        0.862246    0.459613    0.575127     0.005394
PD3018   PD        0.097347    0.536378    0.603031     0.005394
PD3019   PD        0.100039    0.569909    0.572222     0.005394
PD3020   PD        0.131155    0.531576    0.571299     0.005394
PD3021   PD        0.132451    0.569936    0.602340     0.005394
AU3022   AU        0.164212    0.534131    0.605094     0.007504
PD3023   PD        0.164005    0.567249    0.571700     0.005394
AU3024   AU        0.197838    0.532309    0.572383     0.007504
PD3025   PD        0.198492    0.567327    0.605302     0.005394
PD3026   PD        0.231079    0.532373    0.605153     0.005394
AU3027   AU        0.228190    0.569187    0.571379     0.007504
PD3028   PD        0.262964    0.533212    0.573428     0.005394
PD3029   PD        0.261925    0.566625    0.605075     0.005394
AU3030   AU        0.295485    0.531571    0.605459     0.007504
AU3031   AU        0.297621    0.571585    0.572602     0.007504
AU3032   AU        0.330617    0.532359    0.571289     0.007504
AU3033   AU        0.330038    0.569541    0.605386     0.007504
AU3034   AU        0.362921    0.534423    0.606875     0.007504
AU3035   AU        0.363998    0.570935    0.571428     0.007504
AU3036   AU        0.396257    0.533553    0.572487     0.007504
AU3037   AU        0.397440    0.570393    0.606455     0.007504
AU3038   AU        0.429834    0.533661    0.604422     0.007504
AU3039   AU        0.429532    0.567918    0.574103     0.007504
AU3040   AU        0.464279    0.534933    0.572571     0.007504
AU3041   AU        0.463286    0.568032    0.606243     0.007504
AU3042   AU        0.496948    0.532384    0.603930     0.007504
AU3043   AU        0.500247    0.569472    0.571639     0.007504
AU3044   AU        0.531484    0.533643    0.573272     0.007504
AU3045   AU        0.533231    0.571771    0.604146     0.007504
AU3046   AU        0.564275    0.533722    0.605463     0.007504
AU3047   AU        0.565448    0.568767    0.574191     0.007504
AU3048   AU        0.600090    0.535145    0.572528     0.007504
AU3049   AU        0.599332    0.570377    0.607440     0.007504
AU3050   AU        0.634845    0.533100    0.606658     0.007504
AU3051   AU        0.633503    0.570533    0.572318     0.007504
AU3052   AU        0.665730    0.532066    0.574271     0.007504
AU3053   AU        0.665370    0.569396    0.606007     0.007504
AU3054   AU        0.699391    0.534231    0.606564     0.007504
AU3055   AU        0.699681    0.569899    0.572604     0.007504
PD3056   PD        0.729737    0.531931    0.574674     0.005394
AU3057   AU        0.731596    0.570445    0.605369     0.007504
PD3058   PD        0.762673    0.535309    0.604572     0.005394
AU3059   AU        0.765576    0.568843    0.571052     0.007504
PD3060   PD        0.797107    0.534781    0.569400     0.005394
PD3061   PD        0.795969    0.568495    0.605030     0.005394
PD3062   PD        0.834022    0.525267    0.609659     0.005394
PD3063   PD        0.876021    0.565337    0.596936     0.005394
PD3064   PD        0.131683    0.605931    0.570704     0.005394
PD3065   PD        0.132972    0.640385    0.603321     0.005394
AU3066   AU        0.166578    0.603884    0.603726     0.007504
AU3067   AU        0.165552    0.643040    0.571198     0.007504
AU3068   AU        0.195784    0.605961    0.569328     0.007504
AU3069   AU        0.196430    0.640147    0.605057     0.007504
PD3070   PD        0.230717    0.607414    0.605012     0.005394
PD3071   PD        0.228481    0.640899    0.571337     0.005394
PD3072   PD        0.261419    0.603334    0.570700     0.005394
PD3073   PD        0.265032    0.642793    0.604332     0.005394
PD3074   PD        0.298121    0.608337    0.605133     0.005394
AU3075   AU        0.297202    0.642549    0.569968     0.007504
AU3076   AU        0.329716    0.605932    0.571397     0.007504
AU3077   AU        0.332040    0.640998    0.605473     0.007504
AU3078   AU        0.366144    0.605544    0.604571     0.007504
AU3079   AU        0.365906    0.640532    0.571192     0.007504
AU3080   AU        0.398485    0.606884    0.571011     0.007504
AU3081   AU        0.399451    0.640003    0.604234     0.007504
AU3082   AU        0.430825    0.607331    0.604566     0.007504
AU3083   AU        0.431096    0.642993    0.570615     0.007504
AU3084   AU        0.464331    0.606945    0.574148     0.007504
AU3085   AU        0.463760    0.641789    0.605577     0.007504
PD3086   PD        0.499272    0.604650    0.604760     0.005394
AU3087   AU        0.498123    0.641832    0.572613     0.007504
AU3088   AU        0.533334    0.608436    0.573257     0.007504
AU3089   AU        0.531774    0.640127    0.606162     0.007504
AU3090   AU        0.565176    0.605301    0.605337     0.007504
AU3091   AU        0.565729    0.642101    0.572503     0.007504
AU3092   AU        0.598370    0.604323    0.574086     0.007504
AU3093   AU        0.599765    0.643832    0.605562     0.007504
PD3094   PD        0.632394    0.607164    0.605579     0.005394
AU3095   AU        0.633212    0.642119    0.571297     0.007504
AU3096   AU        0.666320    0.606446    0.571932     0.007504
AU3097   AU        0.666265    0.640962    0.604062     0.007504
AU3098   AU        0.698303    0.605478    0.605839     0.007504
AU3099   AU        0.699180    0.641585    0.569822     0.007504
PD3100   PD        0.732884    0.608011    0.571305     0.005394
PD3101   PD        0.731088    0.640567    0.604180     0.005394
PD3102   PD        0.764956    0.604848    0.605616     0.005394
AU3103   AU        0.764795    0.643009    0.571522     0.007504
PD3104   PD        0.797530    0.607124    0.575646     0.005394
PD3105   PD        0.796028    0.677915    0.569268     0.005394
PD3106   PD        0.165793    0.676060    0.604504     0.005394
PD3107   PD        0.166116    0.710726    0.567922     0.005394
AU3108   AU        0.198977    0.677589    0.572888     0.007504
PD3109   PD        0.195162    0.714169    0.601664     0.005394
PD3110   PD        0.231661    0.675068    0.603548     0.005394
AU3111   AU        0.233813    0.713420    0.569156     0.007504
AU3112   AU        0.265225    0.677818    0.571483     0.007504
AU3113   AU        0.264511    0.711896    0.604728     0.007504
AU3114   AU        0.300012    0.676886    0.603911     0.007504
AU3115   AU        0.298748    0.711860    0.573305     0.007504
AU3116   AU        0.331131    0.679500    0.571315     0.007504
AU3117   AU        0.332412    0.713124    0.605041     0.007504
AU3118   AU        0.365868    0.676648    0.605266     0.007504
AU3119   AU        0.362855    0.713409    0.572410     0.007504
AU3120   AU        0.397858    0.679103    0.572737     0.007504
AU3121   AU        0.396913    0.712338    0.605099     0.007504
AU3122   AU        0.431654    0.677219    0.604986     0.007504
AU3123   AU        0.430305    0.711910    0.573572     0.007504
AU3124   AU        0.465839    0.676645    0.572138     0.007504
AU3125   AU        0.463481    0.711297    0.605197     0.007504
AU3126   AU        0.499068    0.677607    0.607422     0.007504
AU3127   AU        0.498301    0.713535    0.573483     0.007504
AU3128   AU        0.533279    0.679189    0.570959     0.007504
AU3129   AU        0.532863    0.712091    0.606728     0.007504
AU3130   AU        0.566287    0.678042    0.606198     0.007504
AU3131   AU        0.564620    0.712622    0.571488     0.007504
PD3132   PD        0.601152    0.678251    0.573012     0.005394
AU3133   AU        0.599147    0.713199    0.605372     0.007504
AU3134   AU        0.633216    0.678214    0.605689     0.007504
AU3135   AU        0.632548    0.713712    0.571131     0.007504
AU3136   AU        0.665402    0.677013    0.572726     0.007504
PD3137   PD        0.665187    0.713425    0.604114     0.005394
AU3138   AU        0.699047    0.677127    0.606338     0.007504
PD3139   PD        0.699425    0.712229    0.570853     0.005394
AU3140   AU        0.731412    0.677889    0.572118     0.007504
PD3141   PD        0.732320    0.713188    0.605550     0.005394
PD3142   PD        0.764552    0.674605    0.602773     0.005394
PD3143   PD        0.762789    0.714467    0.573187     0.005394
PD3144   PD        0.199505    0.744058    0.573627     0.005394
PD3145   PD        0.230797    0.745067    0.605098     0.005394
PD3146   PD        0.233748    0.781339    0.572268     0.005394
AU3147   AU        0.264130    0.746729    0.571923     0.007504
PD3148   PD        0.264843    0.782541    0.604213     0.005394
PD3149   PD        0.298139    0.745407    0.605841     0.005394
PD3150   PD        0.298131    0.782993    0.573230     0.005394
AU3151   AU        0.331428    0.748113    0.571011     0.007504
AU3152   AU        0.331875    0.782405    0.605727     0.007504
AU3153   AU        0.362408    0.747308    0.604314     0.007504
AU3154   AU        0.363597    0.783162    0.571022     0.007504
AU3155   AU        0.395729    0.748166    0.573575     0.007504
PD3156   PD        0.398927    0.781848    0.604336     0.005394
PD3157   PD        0.430583    0.746580    0.604240     0.005394
PD3158   PD        0.430462    0.781401    0.570554     0.005394
AU3159   AU        0.464115    0.747231    0.571582     0.007504
PD3160   PD        0.465328    0.781656    0.603994     0.005394
PD3161   PD        0.499153    0.749439    0.603540     0.005394
PD3162   PD        0.499739    0.782095    0.570127     0.005394
PD3163   PD        0.532498    0.745946    0.573537     0.005394
PD3164   PD        0.533050    0.788378    0.605815     0.005394
AU3165   AU        0.564774    0.748496    0.605068     0.007504
AU3166   AU        0.566570    0.782467    0.573729     0.007504
AU3167   AU        0.598474    0.747209    0.572288     0.007504
PD3168   PD        0.598033    0.783194    0.605659     0.005394
AU3169   AU        0.634134    0.747197    0.603468     0.007504
PD3170   PD        0.629354    0.781915    0.572342     0.005394
PD3171   PD        0.666995    0.747408    0.571640     0.005394
PD3172   PD        0.663897    0.781112    0.603655     0.005394
PD3173   PD        0.697822    0.747768    0.602263     0.005394
PD3174   PD        0.694625    0.784238    0.568737     0.005394
PD3175   PD        0.729499    0.746466    0.570759     0.005394
PD3176   PD        0.330556    0.816756    0.638137     0.005394
AU3177   AU        0.331633    0.817360    0.575217     0.007504
PD3178   PD        0.366473    0.816610    0.605459     0.005394
PD3179   PD        0.364473    0.852942    0.570981     0.005394
PD3180   PD        0.397326    0.819137    0.573114     0.005394
PD3181   PD        0.368422    0.886186    0.605064     0.005394
PD3182   PD        0.435189    0.818130    0.603525     0.005394
PD3183   PD        0.432519    0.852561    0.570242     0.005394
PD3184   PD        0.464772    0.818441    0.571797     0.005394
PD3185   PD        0.465114    0.853001    0.605526     0.005394
PD3186   PD        0.496791    0.816639    0.603646     0.005394
PD3187   PD        0.499680    0.850833    0.572642     0.005394
PD3188   PD        0.534247    0.816855    0.570095     0.005394
PD3189   PD        0.527650    0.854932    0.602292     0.005394
PD3190   PD        0.600182    0.853793    0.604208     0.005394
PD3191   PD        0.566755    0.855394    0.571616     0.005394
PD3192   PD        0.596384    0.820243    0.572595     0.005394
PD3193   PD        0.629904    0.815115    0.608269     0.005394
PD3194   PD        0.295672    0.138068    0.637508     0.005394
PD3195   PD        0.332369    0.137347    0.670412     0.005394
PD3196   PD        0.366031    0.137972    0.640046     0.005394
PD3197   PD        0.401379    0.106062    0.638187     0.005394
PD3198   PD        0.398722    0.137202    0.674362     0.005394
PD3199   PD        0.432752    0.104802    0.668457     0.005394
AU3200   AU        0.432167    0.138904    0.637583     0.007504
AU3201   AU        0.464335    0.106543    0.636152     0.007504
AU3202   AU        0.464417    0.139942    0.672761     0.007504
PD3203   PD        0.462240    0.063980    0.671944     0.005394
PD3204   PD        0.497419    0.139232    0.639473     0.005394
PD3205   PD        0.533234    0.066844    0.602690     0.005394
PD3206   PD        0.533705    0.141971    0.674316     0.005394
PD3207   PD        0.564086    0.142093    0.642140     0.005394
PD3208   PD        0.599051    0.139912    0.675228     0.005394
PD3209   PD        0.629009    0.139834    0.639081     0.005394
PD3210   PD        0.232229    0.211533    0.638902     0.005394
PD3211   PD        0.264989    0.175834    0.636222     0.005394
PD3212   PD        0.263818    0.211740    0.668684     0.005394
PD3213   PD        0.299044    0.175037    0.670012     0.005394
AU3214   AU        0.296475    0.207948    0.638067     0.007504
AU3215   AU        0.329660    0.173230    0.635868     0.007504
PD3216   PD        0.330702    0.210293    0.671936     0.005394
PD3217   PD        0.365160    0.174451    0.671571     0.005394
AU3218   AU        0.365296    0.206640    0.636501     0.007504
AU3219   AU        0.397562    0.172040    0.640366     0.007504
PD3220   PD        0.398040    0.208042    0.672502     0.005394
PD3221   PD        0.431586    0.172251    0.672479     0.005394
AU3222   AU        0.431099    0.207331    0.640077     0.007504
AU3223   AU        0.463748    0.174069    0.638045     0.007504
AU3224   AU        0.466159    0.208536    0.671600     0.007504
AU3225   AU        0.498317    0.174772    0.669374     0.007504
AU3226   AU        0.499767    0.208910    0.639555     0.007504
AU3227   AU        0.531487    0.175573    0.640461     0.007504
AU3228   AU        0.532367    0.210860    0.671216     0.007504
PD3229   PD        0.565629    0.175867    0.674668     0.005394
AU3230   AU        0.566718    0.211890    0.640279     0.007504
AU3231   AU        0.600653    0.178509    0.641442     0.007504
AU3232   AU        0.596743    0.211444    0.673653     0.007504
PD3233   PD        0.630170    0.173158    0.672586     0.005394
PD3234   PD        0.633876    0.210368    0.640193     0.005394
PD3235   PD        0.662078    0.178317    0.641630     0.005394
PD3236   PD        0.666131    0.212046    0.675845     0.005394
PD3237   PD        0.696631    0.212182    0.638578     0.005394
PD3238   PD        0.163595    0.282168    0.638507     0.005394
PD3239   PD        0.199201    0.245357    0.635247     0.005394
PD3240   PD        0.197311    0.278946    0.668200     0.005394
PD3241   PD        0.233202    0.244589    0.674455     0.005394
PD3242   PD        0.230097    0.280306    0.636628     0.005394
PD3243   PD        0.264493    0.247843    0.635023     0.005394
AU3244   AU        0.265552    0.282696    0.671058     0.007504
PD3245   PD        0.296287    0.244116    0.671957     0.005394
AU3246   AU        0.298443    0.280860    0.638139     0.007504
PD3247   PD        0.330531    0.243641    0.640559     0.005394
PD3248   PD        0.333034    0.282454    0.671488     0.005394
PD3249   PD        0.364925    0.242310    0.672929     0.005394
AU3250   AU        0.363798    0.279461    0.638717     0.007504
PD3251   PD        0.395332    0.244921    0.643119     0.005394
PD3252   PD        0.398109    0.282173    0.670716     0.005394
PD3253   PD        0.432380    0.242215    0.672836     0.005394
AU3254   AU        0.432637    0.281181    0.641200     0.007504
AU3255   AU        0.465215    0.243352    0.640837     0.007504
AU3256   AU        0.465685    0.281076    0.671820     0.007504
AU3257   AU        0.497210    0.245697    0.672865     0.007504
AU3258   AU        0.498676    0.282673    0.640294     0.007504
AU3259   AU        0.531802    0.247400    0.639869     0.007504
PD3260   PD        0.530745    0.280423    0.672265     0.005394
PD3261   PD        0.566049    0.245213    0.672150     0.005394
AU3262   AU        0.563681    0.279379    0.640229     0.007504
PD3263   PD        0.597568    0.246909    0.640935     0.005394
AU3264   AU        0.599477    0.281514    0.673594     0.007504
PD3265   PD        0.633734    0.245466    0.672594     0.005394
AU3266   AU        0.633438    0.284955    0.639823     0.007504
AU3267   AU        0.664601    0.247020    0.638762     0.007504
PD3268   PD        0.664961    0.282281    0.671905     0.005394
AU3269   AU        0.697681    0.246341    0.671553     0.007504
AU3270   AU        0.698704    0.281093    0.639828     0.007504
PD3271   PD        0.729536    0.245743    0.640510     0.005394
PD3272   PD        0.729039    0.281985    0.673990     0.005394
PD3273   PD        0.761736    0.282079    0.638296     0.005394
PD3274   PD        0.169134    0.240767    0.675515     0.005394
PD3275   PD        0.164997    0.353837    0.640332     0.005394
PD3276   PD        0.199739    0.315428    0.636821     0.005394
PD3277   PD        0.198292    0.356847    0.671503     0.005394
PD3278   PD        0.230549    0.316176    0.671793     0.005394
PD3279   PD        0.231082    0.353844    0.639373     0.005394
PD3280   PD        0.266722    0.316883    0.640436     0.005394
PD3281   PD        0.264250    0.354924    0.671574     0.005394
PD3282   PD        0.297799    0.319075    0.672064     0.005394
PD3283   PD        0.294759    0.354021    0.638869     0.005394
PD3284   PD        0.333049    0.314818    0.638395     0.005394
AU3285   AU        0.330653    0.354299    0.671451     0.007504
PD3286   PD        0.365632    0.319681    0.672628     0.005394
AU3287   AU        0.363487    0.354616    0.637017     0.007504
AU3288   AU        0.397518    0.315814    0.641014     0.007504
AU3289   AU        0.397162    0.353288    0.671274     0.007504
AU3290   AU        0.430751    0.316467    0.672878     0.007504
AU3291   AU        0.432069    0.354277    0.639651     0.007504
AU3292   AU        0.463617    0.317520    0.637085     0.007504
AU3293   AU        0.466565    0.353330    0.671460     0.007504
AU3294   AU        0.496512    0.316497    0.671487     0.007504
AU3295   AU        0.500348    0.354050    0.639552     0.007504
AU3296   AU        0.531671    0.316755    0.640325     0.007504
AU3297   AU        0.531646    0.350490    0.672459     0.007504
AU3298   AU        0.566138    0.318231    0.673246     0.007504
AU3299   AU        0.564111    0.354321    0.639870     0.007504
AU3300   AU        0.597990    0.317299    0.640092     0.007504
PD3301   PD        0.600060    0.352736    0.670553     0.005394
AU3302   AU        0.632677    0.317790    0.671815     0.007504
AU3303   AU        0.634850    0.350777    0.638655     0.007504
AU3304   AU        0.667463    0.317783    0.638531     0.007504
AU3305   AU        0.665659    0.353454    0.673489     0.007504
AU3306   AU        0.696608    0.318869    0.672182     0.007504
AU3307   AU        0.699855    0.353801    0.639005     0.007504
AU3308   AU        0.729365    0.316698    0.641694     0.007504
AU3309   AU        0.729392    0.352332    0.671313     0.007504
PD3310   PD        0.762760    0.315990    0.673778     0.005394
AU3311   AU        0.761439    0.353279    0.639875     0.007504
PD3312   PD        0.133872    0.391370    0.635551     0.005394
PD3313   PD        0.129681    0.424041    0.671592     0.005394
PD3314   PD        0.164748    0.390335    0.669756     0.005394
PD3315   PD        0.164746    0.428891    0.636939     0.005394
PD3316   PD        0.197534    0.390836    0.637875     0.005394
PD3317   PD        0.196037    0.426466    0.667774     0.005394
PD3318   PD        0.232352    0.388758    0.672733     0.005394
PD3319   PD        0.229283    0.425751    0.633845     0.005394
PD3320   PD        0.264927    0.389187    0.636930     0.005394
PD3321   PD        0.265054    0.425386    0.672937     0.005394
PD3322   PD        0.298820    0.390941    0.672158     0.005394
AU3323   AU        0.297565    0.426375    0.637282     0.007504
AU3324   AU        0.329811    0.390314    0.638909     0.007504
PD3325   PD        0.331677    0.429871    0.672619     0.005394
AU3326   AU        0.364169    0.388154    0.672592     0.007504
AU3327   AU        0.366485    0.426609    0.639933     0.007504
AU3328   AU        0.398307    0.388580    0.639412     0.007504
AU3329   AU        0.399710    0.423011    0.671456     0.007504
AU3330   AU        0.430537    0.387542    0.673227     0.007504
AU3331   AU        0.432650    0.425403    0.639405     0.007504
AU3332   AU        0.464889    0.388847    0.641751     0.007504
AU3333   AU        0.463053    0.425302    0.672905     0.007504
AU3334   AU        0.498081    0.388250    0.671948     0.007504
AU3335   AU        0.495438    0.425186    0.638921     0.007504
AU3336   AU        0.530299    0.390035    0.638711     0.007504
AU3337   AU        0.533090    0.424037    0.670691     0.007504
AU3338   AU        0.565079    0.386949    0.673103     0.007504
AU3339   AU        0.566151    0.426098    0.638498     0.007504
PD3340   PD        0.600255    0.389996    0.636824     0.005394
PD3341   PD        0.598009    0.423946    0.673612     0.005394
PD3342   PD        0.629953    0.387541    0.674303     0.005394
AU3343   AU        0.631499    0.426715    0.639627     0.007504
AU3344   AU        0.665989    0.388410    0.639382     0.007504
PD3345   PD        0.661860    0.421596    0.671737     0.005394
AU3346   AU        0.698965    0.389956    0.673280     0.007504
AU3347   AU        0.698591    0.424919    0.639999     0.007504
AU3348   AU        0.730692    0.389459    0.639772     0.007504
PD3349   PD        0.732945    0.422952    0.673537     0.005394
PD3350   PD        0.761015    0.390422    0.672185     0.005394
AU3351   AU        0.764645    0.425208    0.638446     0.007504
PD3352   PD        0.793894    0.387943    0.638732     0.005394
PD3353   PD        0.795918    0.422589    0.671635     0.005394
PD3354   PD        0.131359    0.461656    0.637253     0.005394
PD3355   PD        0.134727    0.497301    0.672297     0.005394
PD3356   PD        0.164592    0.459486    0.670212     0.005394
PD3357   PD        0.164362    0.496706    0.639089     0.005394
AU3358   AU        0.196620    0.462832    0.638165     0.007504
PD3359   PD        0.199951    0.495934    0.671120     0.005394
PD3360   PD        0.230729    0.458642    0.668543     0.005394
AU3361   AU        0.229803    0.497716    0.636277     0.007504
AU3362   AU        0.264188    0.463110    0.635990     0.007504
AU3363   AU        0.264151    0.497980    0.670183     0.007504
AU3364   AU        0.297038    0.462189    0.671805     0.007504
AU3365   AU        0.298508    0.495726    0.638217     0.007504
AU3366   AU        0.331497    0.460638    0.638265     0.007504
AU3367   AU        0.330327    0.497131    0.669557     0.007504
PD3368   PD        0.364640    0.461002    0.670822     0.005394
AU3369   AU        0.364754    0.497945    0.639174     0.007504
AU3370   AU        0.400122    0.461264    0.637451     0.007504
AU3371   AU        0.398575    0.498126    0.670799     0.007504
AU3372   AU        0.430162    0.462966    0.673173     0.007504
AU3373   AU        0.431364    0.498138    0.640026     0.007504
AU3374   AU        0.464041    0.461647    0.642382     0.007504
AU3375   AU        0.464212    0.500569    0.672803     0.007504
AU3376   AU        0.498528    0.461881    0.671934     0.007504
PD3377   PD        0.497450    0.496034    0.640368     0.005394
AU3378   AU        0.533158    0.460160    0.638287     0.007504
AU3379   AU        0.532545    0.498868    0.671914     0.007504
AU3380   AU        0.565653    0.461222    0.671033     0.007504
AU3381   AU        0.566811    0.499171    0.639251     0.007504
AU3382   AU        0.598496    0.461125    0.639997     0.007504
PD3383   PD        0.599940    0.497499    0.672105     0.005394
PD3384   PD        0.634031    0.462637    0.674077     0.005394
PD3385   PD        0.633120    0.497861    0.641710     0.005394
AU3386   AU        0.668174    0.463237    0.641080     0.007504
AU3387   AU        0.664005    0.499158    0.674014     0.007504
PD3388   PD        0.699721    0.463799    0.672960     0.005394
PD3389   PD        0.699080    0.498515    0.639573     0.005394
AU3390   AU        0.730824    0.462253    0.638268     0.007504
AU3391   AU        0.729619    0.499820    0.673910     0.007504
PD3392   PD        0.761889    0.461480    0.673423     0.005394
PD3393   PD        0.763952    0.496298    0.642250     0.005394
AU3394   AU        0.794679    0.462453    0.639795     0.007504
PD3395   PD        0.799003    0.496897    0.670149     0.005394
PD3396   PD        0.132670    0.531284    0.638308     0.005394
PD3397   PD        0.167042    0.530751    0.669547     0.005394
PD3398   PD        0.163153    0.573129    0.638874     0.005394
PD3399   PD        0.195870    0.531677    0.637675     0.005394
PD3400   PD        0.198775    0.567748    0.668539     0.005394
PD3401   PD        0.233102    0.533262    0.669868     0.005394
PD3402   PD        0.231042    0.569922    0.636626     0.005394
PD3403   PD        0.263876    0.532589    0.637041     0.005394
PD3404   PD        0.264106    0.570843    0.667358     0.005394
AU3405   AU        0.295578    0.533332    0.672091     0.007504
AU3406   AU        0.296860    0.567500    0.638349     0.007504
AU3407   AU        0.329732    0.533420    0.638885     0.007504
AU3408   AU        0.332043    0.567029    0.671906     0.007504
AU3409   AU        0.363904    0.531225    0.671503     0.007504
AU3410   AU        0.363770    0.569049    0.639824     0.007504
AU3411   AU        0.398361    0.533607    0.640511     0.007504
PD3412   PD        0.395922    0.570385    0.674707     0.005394
AU3413   AU        0.433162    0.537394    0.673227     0.007504
AU3414   AU        0.430665    0.572091    0.638284     0.007504
AU3415   AU        0.465098    0.535749    0.639797     0.007504
AU3416   AU        0.464356    0.571242    0.671370     0.007504
AU3417   AU        0.499427    0.533541    0.671375     0.007504
AU3418   AU        0.500510    0.569487    0.640864     0.007504
AU3419   AU        0.531156    0.531835    0.640002     0.007504
AU3420   AU        0.533753    0.571193    0.673127     0.007504
AU3421   AU        0.564985    0.535105    0.671909     0.007504
AU3422   AU        0.564797    0.568355    0.639328     0.007504
AU3423   AU        0.598425    0.534156    0.640635     0.007504
AU3424   AU        0.599061    0.569665    0.672015     0.007504
AU3425   AU        0.634231    0.534717    0.670475     0.007504
AU3426   AU        0.633701    0.569145    0.638055     0.007504
AU3427   AU        0.666479    0.534038    0.639644     0.007504
AU3428   AU        0.666462    0.571769    0.671902     0.007504
PD3429   PD        0.697393    0.534200    0.673531     0.005394
AU3430   AU        0.698373    0.573020    0.637844     0.007504
PD3431   PD        0.730856    0.535160    0.640079     0.005394
PD3432   PD        0.731187    0.570523    0.670564     0.005394
PD3433   PD        0.762704    0.532980    0.670848     0.005394
AU3434   AU        0.763468    0.569520    0.638656     0.007504
AU3435   AU        0.793539    0.533779    0.638301     0.007504
PD3436   PD        0.169686    0.606607    0.669614     0.005394
PD3437   PD        0.165638    0.639351    0.638295     0.005394
PD3438   PD        0.199422    0.602652    0.636078     0.005394
PD3439   PD        0.200371    0.641855    0.671453     0.005394
PD3440   PD        0.230024    0.607766    0.672971     0.005394
PD3441   PD        0.230548    0.640458    0.638154     0.005394
PD3442   PD        0.266491    0.605171    0.636028     0.005394
PD3443   PD        0.262457    0.643516    0.671851     0.005394
PD3444   PD        0.296936    0.603637    0.670522     0.005394
PD3445   PD        0.298340    0.641260    0.639607     0.005394
AU3446   AU        0.332374    0.604605    0.637400     0.007504
PD3447   PD        0.332800    0.640986    0.670530     0.005394
PD3448   PD        0.362928    0.606616    0.669513     0.005394
AU3449   AU        0.365449    0.642605    0.637360     0.007504
AU3450   AU        0.399946    0.606325    0.636926     0.007504
PD3451   PD        0.397993    0.640410    0.671481     0.005394
AU3452   AU        0.431650    0.604696    0.671323     0.007504
AU3453   AU        0.432076    0.641781    0.638274     0.007504
AU3454   AU        0.466606    0.604873    0.636362     0.007504
AU3455   AU        0.463661    0.641902    0.673187     0.007504
AU3456   AU        0.497244    0.606581    0.671012     0.007504
AU3457   AU        0.496281    0.642263    0.638149     0.007504
AU3458   AU        0.531786    0.606724    0.639904     0.007504
PD3459   PD        0.532490    0.640366    0.670611     0.005394
PD3460   PD        0.565962    0.607268    0.672484     0.005394
AU3461   AU        0.565992    0.642769    0.638946     0.007504
PD3462   PD        0.601378    0.605700    0.637859     0.005394
PD3463   PD        0.598845    0.643014    0.671195     0.005394
PD3464   PD        0.630617    0.604678    0.671038     0.005394
AU3465   AU        0.634038    0.642692    0.638597     0.007504
AU3466   AU        0.666313    0.607499    0.639838     0.007504
AU3467   AU        0.667354    0.641717    0.671731     0.007504
AU3468   AU        0.697757    0.606367    0.672417     0.007504
AU3469   AU        0.698770    0.640410    0.637837     0.007504
PD3470   PD        0.731391    0.604780    0.639695     0.005394
PD3471   PD        0.730334    0.639906    0.671597     0.005394
PD3472   PD        0.764763    0.603674    0.670384     0.005394
PD3473   PD        0.763338    0.637785    0.639628     0.005394
PD3474   PD        0.198778    0.675216    0.637083     0.005394
PD3475   PD        0.231548    0.679503    0.671833     0.005394
PD3476   PD        0.230913    0.713369    0.636890     0.005394
PD3477   PD        0.263007    0.676706    0.639025     0.005394
PD3478   PD        0.265956    0.712909    0.672029     0.005394
PD3479   PD        0.299409    0.678836    0.671711     0.005394
PD3480   PD        0.299241    0.710708    0.636170     0.005394
AU3481   AU        0.331451    0.676773    0.636541     0.007504
AU3482   AU        0.331989    0.711240    0.671569     0.007504
PD3483   PD        0.363981    0.679455    0.670018     0.005394
AU3484   AU        0.364907    0.713044    0.637759     0.007504
AU3485   AU        0.397757    0.677473    0.638358     0.007504
AU3486   AU        0.396762    0.711840    0.670904     0.007504
AU3487   AU        0.429658    0.677384    0.669477     0.007504
PD3488   PD        0.431809    0.712029    0.636046     0.005394
AU3489   AU        0.463512    0.676820    0.639078     0.007504
PD3490   PD        0.465109    0.708866    0.672986     0.005394
PD3491   PD        0.499239    0.676471    0.671852     0.005394
AU3492   AU        0.498554    0.712566    0.636925     0.007504
AU3493   AU        0.532661    0.675276    0.638671     0.007504
PD3494   PD        0.533744    0.710050    0.669227     0.005394
PD3495   PD        0.565636    0.678137    0.672525     0.005394
AU3496   AU        0.565525    0.714229    0.639024     0.007504
AU3497   AU        0.599832    0.678002    0.637595     0.007504
AU3498   AU        0.599198    0.712925    0.672044     0.007504
PD3499   PD        0.634098    0.677946    0.670717     0.005394
PD3500   PD        0.632804    0.714025    0.636774     0.005394
AU3501   AU        0.666790    0.677813    0.638415     0.007504
PD3502   PD        0.665310    0.711300    0.669728     0.005394
PD3503   PD        0.698351    0.677422    0.669148     0.005394
PD3504   PD        0.697655    0.715641    0.635505     0.005394
PD3505   PD        0.732803    0.676233    0.636990     0.005394
PD3506   PD        0.267499    0.744293    0.637495     0.005394
PD3507   PD        0.300515    0.748754    0.669656     0.005394
PD3508   PD        0.296766    0.781203    0.637618     0.005394
PD3509   PD        0.332119    0.746562    0.638234     0.005394
PD3510   PD        0.327170    0.787643    0.671778     0.005394
PD3511   PD        0.364651    0.746166    0.668640     0.005394
PD3512   PD        0.364124    0.781502    0.637478     0.005394
PD3513   PD        0.398717    0.749559    0.635715     0.005394
PD3514   PD        0.396018    0.779129    0.668932     0.005394
PD3515   PD        0.434734    0.747054    0.667899     0.005394
PD3516   PD        0.434978    0.784327    0.639604     0.005394
PD3517   PD        0.465078    0.746834    0.635798     0.005394
PD3518   PD        0.467412    0.785101    0.671972     0.005394
PD3519   PD        0.499892    0.748909    0.670891     0.005394
PD3520   PD        0.496456    0.785081    0.637275     0.005394
PD3521   PD        0.531615    0.750730    0.638937     0.005394
PD3522   PD        0.530864    0.784792    0.669842     0.005394
PD3523   PD        0.565590    0.749442    0.670799     0.005394
PD3524   PD        0.566623    0.779496    0.641008     0.005394
AU3525   AU        0.600338    0.746844    0.637250     0.007504
PD3526   PD        0.635186    0.853839    0.639029     0.005394
PD3527   PD        0.631730    0.747216    0.670203     0.005394
PD3528   PD        0.630639    0.785981    0.640348     0.005394
PD3529   PD        0.662638    0.747609    0.639348     0.005394
PD3530   PD        0.431987    0.848523    0.637292     0.005394
PD3531   PD        0.434837    0.821303    0.673893     0.005394
PD3532   PD        0.466138    0.819507    0.637931     0.005394
PD3533   PD        0.501237    0.821298    0.670165     0.005394
PD3534   PD        0.530949    0.817538    0.636236     0.005394
PD3535   PD        0.433317    0.134145    0.703507     0.005394
PD3536   PD        0.496323    0.141725    0.706350     0.005394
PD3537   PD        0.296781    0.208403    0.702129     0.005394
PD3538   PD        0.331548    0.174937    0.700211     0.005394
PD3539   PD        0.330677    0.211854    0.735732     0.005394
PD3540   PD        0.366269    0.208587    0.706227     0.005394
PD3541   PD        0.395999    0.144462    0.743703     0.005394
PD3542   PD        0.399413    0.212748    0.736541     0.005394
PD3543   PD        0.432886    0.175228    0.741361     0.005394
PD3544   PD        0.432731    0.211127    0.704822     0.005394
PD3545   PD        0.463551    0.176768    0.704360     0.005394
PD3546   PD        0.465058    0.211772    0.735103     0.005394
PD3547   PD        0.496826    0.176949    0.737449     0.005394
PD3548   PD        0.499315    0.211048    0.702687     0.005394
PD3549   PD        0.530557    0.175303    0.701552     0.005394
PD3550   PD        0.531482    0.209357    0.735692     0.005394
AU3551   AU        0.564210    0.211085    0.704984     0.007504
PD3552   PD        0.598215    0.174585    0.705934     0.005394
PD3553   PD        0.599168    0.211798    0.735168     0.005394
PD3554   PD        0.630858    0.212049    0.705731     0.005394
PD3555   PD        0.232767    0.282661    0.701479     0.005394
PD3556   PD        0.265725    0.247857    0.704210     0.005394
PD3557   PD        0.266288    0.284707    0.734391     0.005394
PD3558   PD        0.300416    0.247622    0.736695     0.005394
PD3559   PD        0.298064    0.281797    0.701792     0.005394
PD3560   PD        0.330620    0.244588    0.703907     0.005394
PD3561   PD        0.331774    0.281222    0.736773     0.005394
PD3562   PD        0.365621    0.248516    0.734408     0.005394
PD3563   PD        0.366739    0.282810    0.704743     0.005394
PD3564   PD        0.399654    0.248030    0.703651     0.005394
PD3565   PD        0.398255    0.284088    0.736129     0.005394
PD3566   PD        0.431669    0.246716    0.736132     0.005394
AU3567   AU        0.432259    0.280576    0.704120     0.007504
AU3568   AU        0.465149    0.245910    0.703265     0.007504
AU3569   AU        0.464688    0.284095    0.737999     0.007504
PD3570   PD        0.498249    0.247668    0.737705     0.005394
AU3571   AU        0.496961    0.282905    0.704555     0.007504
AU3572   AU        0.530870    0.245602    0.704877     0.007504
AU3573   AU        0.531206    0.281618    0.737975     0.007504
AU3574   AU        0.564348    0.246963    0.736854     0.007504
PD3575   PD        0.565376    0.282960    0.705850     0.005394
AU3576   AU        0.598473    0.246569    0.704993     0.007504
PD3577   PD        0.598906    0.282413    0.735332     0.005394
PD3578   PD        0.629215    0.246482    0.735224     0.005394
AU3579   AU        0.631795    0.282948    0.704912     0.007504
PD3580   PD        0.666194    0.248536    0.704357     0.005394
PD3581   PD        0.664750    0.282870    0.737486     0.005394
PD3582   PD        0.696327    0.281973    0.706390     0.005394
PD3583   PD        0.197996    0.321726    0.703458     0.005394
PD3584   PD        0.234516    0.313697    0.735664     0.005394
PD3585   PD        0.230946    0.351109    0.709179     0.005394
AU3586   AU        0.265045    0.318274    0.702985     0.007504
PD3587   PD        0.265467    0.353377    0.736093     0.005394
PD3588   PD        0.299022    0.316864    0.734048     0.005394
AU3589   AU        0.299147    0.353632    0.704381     0.007504
AU3590   AU        0.330706    0.317200    0.703753     0.007504
AU3591   AU        0.331356    0.351719    0.737070     0.007504
AU3592   AU        0.365081    0.319561    0.736521     0.007504
AU3593   AU        0.363895    0.353303    0.705765     0.007504
AU3594   AU        0.398806    0.319979    0.704996     0.007504
AU3595   AU        0.399433    0.353919    0.738332     0.007504
AU3596   AU        0.432915    0.318592    0.738252     0.007504
AU3597   AU        0.433198    0.352534    0.705445     0.007504
AU3598   AU        0.464518    0.316109    0.706412     0.007504
AU3599   AU        0.465773    0.352332    0.738119     0.007504
AU3600   AU        0.499993    0.319870    0.738237     0.007504
AU3601   AU        0.497856    0.351527    0.705226     0.007504
AU3602   AU        0.532479    0.317389    0.706702     0.007504
AU3603   AU        0.532011    0.353854    0.738358     0.007504
PD3604   PD        0.567566    0.317296    0.738581     0.005394
AU3605   AU        0.563526    0.352021    0.706046     0.007504
AU3606   AU        0.601346    0.317941    0.706139     0.007504
PD3607   PD        0.597694    0.354251    0.738408     0.005394
PD3608   PD        0.631306    0.317960    0.738256     0.005394
PD3609   PD        0.632074    0.352823    0.705359     0.005394
AU3610   AU        0.664172    0.317863    0.706828     0.007504
PD3611   PD        0.664668    0.351145    0.738522     0.005394
PD3612   PD        0.695571    0.319327    0.741298     0.005394
AU3613   AU        0.697024    0.354191    0.705633     0.007504
PD3614   PD        0.731492    0.320102    0.705748     0.005394
PD3615   PD        0.165160    0.429646    0.702357     0.005394
PD3616   PD        0.199703    0.392119    0.703132     0.005394
PD3617   PD        0.197115    0.428069    0.734867     0.005394
PD3618   PD        0.231283    0.392203    0.735366     0.005394
PD3619   PD        0.231982    0.425786    0.704744     0.005394
PD3620   PD        0.266133    0.388753    0.703414     0.005394
PD3621   PD        0.266022    0.424582    0.735386     0.005394
PD3622   PD        0.296690    0.390084    0.739574     0.005394
PD3623   PD        0.298366    0.426486    0.705024     0.005394
AU3624   AU        0.331370    0.388062    0.705969     0.007504
AU3625   AU        0.330690    0.421527    0.738809     0.007504
PD3626   PD        0.365219    0.385207    0.737869     0.005394
PD3627   PD        0.364449    0.427029    0.705378     0.005394
AU3628   AU        0.398086    0.385875    0.706238     0.007504
PD3629   PD        0.398914    0.423668    0.738776     0.005394
AU3630   AU        0.434054    0.388104    0.738460     0.007504
AU3631   AU        0.430544    0.423322    0.707567     0.007504
AU3632   AU        0.467195    0.388387    0.705685     0.007504
AU3633   AU        0.466167    0.423414    0.737470     0.007504
AU3634   AU        0.498647    0.388312    0.736596     0.007504
AU3635   AU        0.496573    0.425445    0.705528     0.007504
PD3636   PD        0.531368    0.390296    0.702905     0.005394
AU3637   AU        0.530920    0.423220    0.737000     0.007504
PD3638   PD        0.564862    0.388590    0.739761     0.005394
PD3639   PD        0.566679    0.424146    0.705090     0.005394
PD3640   PD        0.596357    0.388960    0.707097     0.005394
PD3641   PD        0.599337    0.429023    0.736403     0.005394
PD3642   PD        0.630650    0.387443    0.736735     0.005394
PD3643   PD        0.634250    0.426463    0.706833     0.005394
PD3644   PD        0.666955    0.389716    0.705095     0.005394
PD3645   PD        0.665022    0.427591    0.736977     0.005394
PD3646   PD        0.698953    0.388489    0.738307     0.005394
PD3647   PD        0.699845    0.425300    0.703726     0.005394
PD3648   PD        0.728931    0.386154    0.706142     0.005394
PD3649   PD        0.729779    0.423011    0.741619     0.005394
PD3650   PD        0.762423    0.423713    0.702374     0.005394
PD3651   PD        0.166504    0.497888    0.704041     0.005394
PD3652   PD        0.197723    0.460031    0.699540     0.005394
PD3653   PD        0.196987    0.496938    0.735044     0.005394
PD3654   PD        0.230081    0.460314    0.737312     0.005394
PD3655   PD        0.230294    0.496925    0.705551     0.005394
PD3656   PD        0.262640    0.463793    0.703851     0.005394
PD3657   PD        0.265624    0.495017    0.737635     0.005394
PD3658   PD        0.296909    0.458735    0.735889     0.005394
AU3659   AU        0.294273    0.496409    0.704393     0.007504
PD3660   PD        0.328540    0.461637    0.706446     0.005394
PD3661   PD        0.331232    0.497194    0.736648     0.005394
PD3662   PD        0.362487    0.460230    0.737228     0.005394
AU3663   AU        0.364946    0.495779    0.703870     0.007504
AU3664   AU        0.397493    0.461775    0.706423     0.007504
PD3665   PD        0.397408    0.498975    0.737264     0.005394
AU3666   AU        0.431514    0.461930    0.737246     0.007504
AU3667   AU        0.430915    0.496172    0.704659     0.007504
AU3668   AU        0.463825    0.459957    0.706114     0.007504
PD3669   PD        0.463290    0.496664    0.738920     0.005394
PD3670   PD        0.497534    0.462640    0.736676     0.005394
AU3671   AU        0.499537    0.498425    0.704789     0.007504
PD3672   PD        0.531870    0.462523    0.706315     0.005394
AU3673   AU        0.532725    0.498523    0.737324     0.007504
PD3674   PD        0.565205    0.459451    0.736812     0.005394
AU3675   AU        0.566503    0.498111    0.703277     0.007504
PD3676   PD        0.600170    0.461895    0.702867     0.005394
PD3677   PD        0.598300    0.499406    0.737149     0.005394
AU3678   AU        0.631446    0.463380    0.739914     0.007504
AU3679   AU        0.631512    0.499805    0.705116     0.007504
PD3680   PD        0.665455    0.462267    0.705737     0.005394
PD3681   PD        0.663262    0.497510    0.736621     0.005394
PD3682   PD        0.697193    0.459090    0.738511     0.005394
AU3683   AU        0.695478    0.499335    0.705703     0.007504
PD3684   PD        0.728290    0.462527    0.705926     0.005394
PD3685   PD        0.766998    0.528734    0.735611     0.005394
PD3686   PD        0.765172    0.495422    0.704317     0.005394
PD3687   PD        0.199706    0.530707    0.703079     0.005394
PD3688   PD        0.197481    0.569293    0.737656     0.005394
PD3689   PD        0.233846    0.567879    0.703788     0.005394
PD3690   PD        0.263710    0.530635    0.704517     0.005394
PD3691   PD        0.264548    0.569116    0.737012     0.005394
PD3692   PD        0.295994    0.531468    0.740733     0.005394
PD3693   PD        0.296853    0.567165    0.704595     0.005394
PD3694   PD        0.327324    0.531899    0.702576     0.005394
PD3695   PD        0.330799    0.569096    0.737938     0.005394
PD3696   PD        0.364758    0.534445    0.738038     0.005394
PD3697   PD        0.364351    0.568314    0.708388     0.005394
AU3698   AU        0.398032    0.533514    0.704366     0.007504
PD3699   PD        0.401318    0.569834    0.734978     0.005394
AU3700   AU        0.430786    0.535291    0.739163     0.007504
AU3701   AU        0.433571    0.569875    0.705873     0.007504
AU3702   AU        0.464548    0.533752    0.706357     0.007504
AU3703   AU        0.465624    0.570458    0.737036     0.007504
AU3704   AU        0.498086    0.532998    0.737699     0.007504
AU3705   AU        0.499557    0.568900    0.705258     0.007504
AU3706   AU        0.532528    0.534322    0.704526     0.007504
PD3707   PD        0.533163    0.566925    0.738184     0.005394
AU3708   AU        0.564930    0.532941    0.736597     0.007504
AU3709   AU        0.566449    0.569125    0.707235     0.007504
AU3710   AU        0.598752    0.535954    0.702653     0.007504
AU3711   AU        0.599456    0.571684    0.737910     0.007504
AU3712   AU        0.630373    0.537073    0.735995     0.007504
PD3713   PD        0.632639    0.569562    0.702122     0.005394
AU3714   AU        0.666167    0.535378    0.704037     0.007504
PD3715   PD        0.664800    0.570966    0.736628     0.005394
PD3716   PD        0.694259    0.534914    0.737390     0.005394
PD3717   PD        0.699037    0.568791    0.704443     0.005394
PD3718   PD        0.729654    0.533134    0.705247     0.005394
PD3719   PD        0.202841    0.603780    0.700028     0.005394
PD3720   PD        0.229943    0.605561    0.734964     0.005394
PD3721   PD        0.233365    0.642501    0.703412     0.005394
PD3722   PD        0.263562    0.606068    0.705151     0.005394
PD3723   PD        0.264241    0.642086    0.735755     0.005394
AU3724   AU        0.297981    0.605493    0.735889     0.007504
PD3725   PD        0.300359    0.641539    0.703255     0.005394
PD3726   PD        0.331067    0.602895    0.704122     0.005394
PD3727   PD        0.333608    0.636380    0.736295     0.005394
PD3728   PD        0.365105    0.604462    0.738052     0.005394
PD3729   PD        0.365472    0.639166    0.705320     0.005394
PD3730   PD        0.398524    0.604947    0.703015     0.005394
PD3731   PD        0.398628    0.642247    0.736004     0.005394
PD3732   PD        0.435121    0.607411    0.737910     0.005394
AU3733   AU        0.431011    0.638412    0.704992     0.007504
PD3734   PD        0.466537    0.603945    0.703731     0.005394
AU3735   AU        0.466128    0.640187    0.737761     0.007504
AU3736   AU        0.498900    0.606366    0.736130     0.007504
PD3737   PD        0.497727    0.640466    0.705512     0.005394
AU3738   AU        0.533941    0.605133    0.705794     0.007504
PD3739   PD        0.532664    0.641646    0.735541     0.005394
PD3740   PD        0.569363    0.605089    0.738281     0.005394
AU3741   AU        0.567226    0.642256    0.704610     0.007504
PD3742   PD        0.597448    0.604986    0.703827     0.005394
PD3743   PD        0.601264    0.642088    0.735895     0.005394
AU3744   AU        0.634732    0.607775    0.736007     0.007504
PD3745   PD        0.633196    0.641238    0.700745     0.005394
AU3746   AU        0.665300    0.606891    0.704014     0.007504
PD3747   PD        0.666083    0.679977    0.771155     0.005394
PD3748   PD        0.699736    0.602244    0.734935     0.005394
AU3749   AU        0.700013    0.639011    0.706426     0.007504
PD3750   PD        0.731370    0.600618    0.704134     0.005394
PD3751   PD        0.263206    0.678161    0.703635     0.005394
PD3752   PD        0.298934    0.676762    0.735490     0.005394
PD3753   PD        0.298646    0.705733    0.772113     0.005394
AU3754   AU        0.331140    0.674443    0.703484     0.007504
PD3755   PD        0.330830    0.712214    0.732723     0.005394
AU3756   AU        0.362434    0.676039    0.737884     0.007504
PD3757   PD        0.366293    0.710122    0.705767     0.005394
PD3758   PD        0.397875    0.673062    0.703710     0.005394
PD3759   PD        0.395661    0.708489    0.740553     0.005394
PD3760   PD        0.432862    0.675898    0.737082     0.005394
PD3761   PD        0.432847    0.713195    0.701568     0.005394
PD3762   PD        0.463061    0.674067    0.706323     0.005394
PD3763   PD        0.465801    0.713385    0.736101     0.005394
PD3764   PD        0.498131    0.677573    0.737695     0.005394
PD3765   PD        0.497212    0.711977    0.704991     0.005394
PD3766   PD        0.532391    0.671915    0.701180     0.005394
PD3767   PD        0.560308    0.711462    0.777563     0.005394
PD3768   PD        0.566568    0.674918    0.736463     0.005394
PD3769   PD        0.565264    0.713905    0.702775     0.005394
PD3770   PD        0.601171    0.677729    0.704759     0.005394
PD3771   PD        0.602291    0.713862    0.735657     0.005394
PD3772   PD        0.633753    0.679166    0.736692     0.005394
PD3773   PD        0.633693    0.713370    0.701785     0.005394
PD3774   PD        0.668949    0.674845    0.703004     0.005394
PD3775   PD        0.277609    0.772018    0.713823     0.005394
PD3776   PD        0.394131    0.749244    0.708410     0.005394
PD3777   PD        0.428345    0.743117    0.736576     0.005394
PD3778   PD        0.328951    0.737478    0.786964     0.005394
PD3779   PD        0.465719    0.748434    0.703260     0.005394
PD3780   PD        0.499746    0.751944    0.738165     0.005394
PD3781   PD        0.499939    0.784480    0.701643     0.005394
PD3782   PD        0.529859    0.745604    0.705816     0.005394
PD3783   PD        0.602436    0.746013    0.705775     0.005394
PD3784   PD        0.434621    0.214718    0.771131     0.005394
PD3785   PD        0.500056    0.212061    0.771658     0.005394
PD3786   PD        0.295486    0.282446    0.769464     0.005394
PD3787   PD        0.364636    0.283904    0.766175     0.005394
PD3788   PD        0.375294    0.244192    0.824323     0.005394
PD3789   PD        0.398824    0.280883    0.804724     0.005394
PD3790   PD        0.430503    0.279857    0.769574     0.005394
PD3791   PD        0.466259    0.245603    0.768708     0.005394
PD3792   PD        0.463240    0.281028    0.801102     0.005394
PD3793   PD        0.498406    0.285632    0.770027     0.005394
PD3794   PD        0.531454    0.246949    0.770680     0.005394
PD3795   PD        0.532224    0.280950    0.803347     0.005394
PD3796   PD        0.562202    0.281898    0.768829     0.005394
PD3797   PD        0.629643    0.283907    0.771534     0.005394
PD3798   PD        0.300712    0.352667    0.767711     0.005394
PD3799   PD        0.331461    0.316231    0.765946     0.005394
PD3800   PD        0.222502    0.362773    0.832646     0.005394
PD3801   PD        0.362026    0.314915    0.800761     0.005394
AU3802   AU        0.366528    0.353509    0.769001     0.007504
PD3803   PD        0.398128    0.316640    0.768447     0.005394
PD3804   PD        0.400477    0.354231    0.802920     0.005394
PD3805   PD        0.428846    0.314555    0.800248     0.005394
PD3806   PD        0.433368    0.351484    0.769550     0.005394
PD3807   PD        0.464650    0.317914    0.770510     0.005394
PD3808   PD        0.467006    0.353418    0.803487     0.005394
PD3809   PD        0.503016    0.317586    0.803442     0.005394
AU3810   AU        0.498457    0.352532    0.771841     0.007504
PD3811   PD        0.531942    0.318521    0.768941     0.005394
PD3812   PD        0.534795    0.355582    0.802513     0.005394
PD3813   PD        0.562747    0.320542    0.803436     0.005394
PD3814   PD        0.566228    0.354255    0.769839     0.005394
AU3815   AU        0.598977    0.317617    0.771710     0.007504
PD3816   PD        0.600146    0.357923    0.805245     0.005394
PD3817   PD        0.629231    0.353272    0.774107     0.005394
PD3818   PD        0.229926    0.427094    0.767235     0.005394
PD3819   PD        0.258431    0.355704    0.806200     0.005394
PD3820   PD        0.297359    0.394057    0.802801     0.005394
PD3821   PD        0.299973    0.426359    0.770951     0.005394
PD3822   PD        0.331677    0.386835    0.771089     0.005394
PD3823   PD        0.329983    0.427363    0.803268     0.005394
PD3824   PD        0.365663    0.390384    0.802391     0.005394
PD3825   PD        0.366854    0.424961    0.770247     0.005394
AU3826   AU        0.401166    0.387528    0.770209     0.007504
PD3827   PD        0.399206    0.425837    0.803729     0.005394
PD3828   PD        0.433597    0.389836    0.803275     0.005394
AU3829   AU        0.431296    0.424031    0.770282     0.007504
AU3830   AU        0.467270    0.386559    0.770270     0.007504
PD3831   PD        0.464289    0.425899    0.801151     0.005394
PD3832   PD        0.498518    0.389110    0.802772     0.005394
PD3833   PD        0.498317    0.422739    0.770752     0.005394
PD3834   PD        0.529256    0.390018    0.770410     0.005394
PD3835   PD        0.530945    0.424716    0.803435     0.005394
PD3836   PD        0.566576    0.389557    0.800176     0.005394
PD3837   PD        0.564236    0.424335    0.767407     0.005394
PD3838   PD        0.600004    0.393954    0.770795     0.005394
PD3839   PD        0.598162    0.429085    0.800418     0.005394
PD3840   PD        0.631705    0.391223    0.800297     0.005394
PD3841   PD        0.632829    0.427534    0.770405     0.005394
PD3842   PD        0.664381    0.388740    0.769360     0.005394
PD3843   PD        0.696261    0.428046    0.770765     0.005394
PD3844   PD        0.196069    0.461188    0.767748     0.005394
PD3845   PD        0.263988    0.460022    0.769155     0.005394
PD3846   PD        0.297669    0.460728    0.805833     0.005394
PD3847   PD        0.296740    0.495064    0.769744     0.005394
PD3848   PD        0.330648    0.458894    0.771023     0.005394
PD3849   PD        0.337129    0.503154    0.809611     0.005394
PD3850   PD        0.364697    0.458632    0.804016     0.005394
PD3851   PD        0.364429    0.497620    0.771713     0.005394
PD3852   PD        0.399392    0.461319    0.768196     0.005394
PD3853   PD        0.397695    0.495187    0.803348     0.005394
PD3854   PD        0.433004    0.460869    0.801166     0.005394
PD3855   PD        0.428751    0.496366    0.769316     0.005394
AU3856   AU        0.462979    0.461901    0.768583     0.007504
PD3857   PD        0.461489    0.496905    0.798823     0.005394
PD3858   PD        0.499619    0.460972    0.800633     0.005394
AU3859   AU        0.497164    0.498600    0.769688     0.007504
PD3860   PD        0.531119    0.460677    0.769574     0.005394
PD3861   PD        0.532272    0.497657    0.801123     0.005394
PD3862   PD        0.563534    0.463150    0.804444     0.005394
AU3863   AU        0.565345    0.499181    0.770260     0.007504
PD3864   PD        0.596169    0.463844    0.768846     0.005394
PD3865   PD        0.598214    0.503391    0.805369     0.005394
PD3866   PD        0.666631    0.427105    0.802671     0.005394
PD3867   PD        0.629983    0.498360    0.768144     0.005394
PD3868   PD        0.663734    0.462787    0.770040     0.005394
PD3869   PD        0.774890    0.564589    0.770293     0.005394
PD3870   PD        0.268053    0.533540    0.767522     0.005394
PD3871   PD        0.299230    0.533560    0.803103     0.005394
PD3872   PD        0.295361    0.569200    0.768769     0.005394
PD3873   PD        0.331557    0.532297    0.770501     0.005394
PD3874   PD        0.335591    0.571744    0.806126     0.005394
PD3875   PD        0.366447    0.536537    0.802194     0.005394
PD3876   PD        0.364455    0.568672    0.769439     0.005394
PD3877   PD        0.395995    0.531948    0.770082     0.005394
PD3878   PD        0.400137    0.571375    0.799710     0.005394
PD3879   PD        0.433063    0.532058    0.800694     0.005394
AU3880   AU        0.434047    0.569041    0.769725     0.007504
PD3881   PD        0.463591    0.532806    0.769455     0.005394
PD3882   PD        0.467135    0.567189    0.800343     0.005394
PD3883   PD        0.497352    0.532620    0.800421     0.005394
PD3884   PD        0.497978    0.569438    0.768054     0.005394
PD3885   PD        0.532855    0.533492    0.768058     0.005394
PD3886   PD        0.532330    0.568442    0.800660     0.005394
PD3887   PD        0.566485    0.534163    0.802610     0.005394
PD3888   PD        0.565678    0.570615    0.768830     0.005394
AU3889   AU        0.599698    0.534810    0.768947     0.007504
PD3890   PD        0.596350    0.569115    0.801950     0.005394
PD3891   PD        0.602273    0.493208    0.880630     0.005394
PD3892   PD        0.631683    0.572231    0.771471     0.005394
PD3893   PD        0.661425    0.533025    0.770749     0.005394
AU3894   AU        0.297347    0.641572    0.766501     0.007504
AU3895   AU        0.333360    0.605949    0.770145     0.007504
PD3896   PD        0.337373    0.602316    0.844186     0.005394
PD3897   PD        0.367550    0.640061    0.767964     0.005394
PD3898   PD        0.399731    0.607596    0.770168     0.005394
PD3899   PD        0.398873    0.641948    0.803296     0.005394
PD3900   PD        0.436106    0.605615    0.803268     0.005394
PD3901   PD        0.429665    0.642603    0.770384     0.005394
PD3902   PD        0.467764    0.606055    0.769367     0.005394
PD3903   PD        0.463609    0.642228    0.801981     0.005394
PD3904   PD        0.498554    0.603747    0.800341     0.005394
PD3905   PD        0.498367    0.640927    0.769736     0.005394
PD3906   PD        0.532714    0.606481    0.768515     0.005394
PD3907   PD        0.535982    0.637991    0.805851     0.005394
PD3908   PD        0.563887    0.569656    0.838720     0.005394
PD3909   PD        0.562273    0.639584    0.768966     0.005394
PD3910   PD        0.597629    0.607430    0.770813     0.005394
PD3911   PD        0.636764    0.640131    0.768598     0.005394
PD3912   PD        0.399612    0.675486    0.767242     0.005394
PD3913   PD        0.428203    0.709669    0.771125     0.005394
PD3914   PD        0.466092    0.677759    0.769168     0.005394
PD3915   PD        0.499265    0.714068    0.768158     0.005394
PD3916   PD        0.530895    0.674351    0.768804     0.005394
PD3917   PD        0.435179    0.424259    0.839708     0.005394
PD3918   PD        0.497219    0.425807    0.834944     0.005394
PD3919   PD        0.510502    0.430769    0.892445     0.005394
PD3920   PD        0.400143    0.459522    0.833552     0.005394
PD3921   PD        0.431776    0.497827    0.832455     0.005394
AU3922   AU        0.464713    0.461020    0.832857     0.007504
PD3923   PD        0.499029    0.461809    0.870898     0.005394
PD3924   PD        0.528967    0.465221    0.834163     0.005394
PD3925   PD        0.468340    0.529013    0.834573     0.005394
