data_00001
_audit_creation_method   'DISCUS'

_data_chemical_name_common 'Au.cell: Pearson 85'

_cell_length_a             57.1046
_cell_length_b             53.0257
_cell_length_c             53.0257
_cell_angle_alpha     90.0000
_cell_angle_beta      90.0000
_cell_angle_gamma     90.0000

_symmetry_space_group_name_H-M   'P1              '

loop_
_atom_site_label
_atom_site_symbol
_atom_site_fract_x
_atom_site_fract_y
_atom_site_fract_z
_atom_site_u_iso_or_equiv
AU1   AU        0.354772    0.269398    0.039967     0.007504
PT2   PT        0.429113    0.268673    0.039276     0.004505
PT3   PT        0.498536    0.269452    0.038382     0.004505
PT4   PT        0.283312    0.347744    0.040982     0.004505
PT5   PT        0.321830    0.307653    0.039374     0.004505
PT6   PT        0.354652    0.346676    0.040425     0.004505
PT7   PT        0.391539    0.305137    0.038188     0.004505
PT8   PT        0.429013    0.346084    0.039730     0.004505
PT9   PT        0.463415    0.308301    0.039321     0.004505
PT10   PT        0.500307    0.345845    0.039016     0.004505
PT11   PT        0.535153    0.307063    0.039649     0.004505
PT12   PT        0.570270    0.343959    0.039954     0.004505
AU13   AU        0.248525    0.386138    0.041338     0.007504
PT14   PT        0.281587    0.422577    0.040160     0.004505
PT15   PT        0.318871    0.385098    0.041287     0.004505
AU16   AU        0.358106    0.422928    0.038622     0.007504
PT17   PT        0.393330    0.383527    0.039694     0.004505
PT18   PT        0.393218    0.422940    0.002508     0.004505
PT19   PT        0.428717    0.386991    0.001457     0.004505
PT20   PT        0.427468    0.422777    0.038558     0.004505
PT21   PT        0.464404    0.385521    0.038599     0.004505
AU22   AU        0.463199    0.422441    0.002192     0.007504
PT23   PT        0.499375    0.424324    0.038095     0.004505
PT24   PT        0.536267    0.383963    0.041033     0.004505
PT25   PT        0.571579    0.422096    0.040377     0.004505
AU26   AU        0.604098    0.381323    0.040176     0.007504
PT27   PT        0.246607    0.462292    0.040799     0.004505
PT28   PT        0.282587    0.502076    0.039729     0.004505
PT29   PT        0.321936    0.461241    0.039989     0.004505
PT30   PT        0.357030    0.459913    0.003168     0.004505
PT31   PT        0.356105    0.499314    0.038949     0.004505
AU32   AU        0.391476    0.463208    0.038420     0.007504
PT33   PT        0.392008    0.499920    0.001549     0.004505
AU34   AU        0.427974    0.461985    0.004353     0.007504
AU35   AU        0.427741    0.500325    0.038680     0.007504
AU36   AU        0.465600    0.462201    0.037667     0.007504
PT37   PT        0.461485    0.499875    0.002367     0.004505
PT38   PT        0.497608    0.461528    0.000769     0.004505
PT39   PT        0.497778    0.498548    0.036943     0.004505
PT40   PT        0.534881    0.460811    0.041077     0.004505
AU41   AU        0.572014    0.499847    0.038408     0.007504
PT42   PT        0.606265    0.460939    0.039641     0.004505
AU43   AU        0.247377    0.536744    0.041725     0.007504
PT44   PT        0.284176    0.578012    0.038804     0.004505
AU45   AU        0.319787    0.539937    0.041515     0.007504
PT46   PT        0.354490    0.578536    0.040138     0.004505
PT47   PT        0.391463    0.536043    0.038731     0.004505
PT48   PT        0.426980    0.537545    0.003008     0.004505
PT49   PT        0.427129    0.577986    0.039358     0.004505
AU50   AU        0.462880    0.537644    0.040153     0.007504
PT51   PT        0.500536    0.581959    0.039481     0.004505
AU52   AU        0.534950    0.538163    0.039650     0.007504
PT53   PT        0.570289    0.577603    0.040221     0.004505
PT54   PT        0.605536    0.537719    0.038303     0.004505
PT55   PT        0.320316    0.617310    0.038960     0.004505
AU56   AU        0.355869    0.654878    0.040429     0.007504
AU57   AU        0.389866    0.615730    0.041735     0.007504
PT58   PT        0.426925    0.694241    0.033280     0.004505
PT59   PT        0.465975    0.618669    0.040228     0.004505
PT60   PT        0.501554    0.653986    0.039204     0.004505
AU61   AU        0.534902    0.614890    0.038841     0.007504
AU62   AU        0.283269    0.192223    0.115526     0.007504
PT63   PT        0.357491    0.192385    0.115103     0.004505
PT64   PT        0.392210    0.154736    0.115322     0.004505
PT65   PT        0.391913    0.192521    0.077899     0.004505
PT66   PT        0.428726    0.192673    0.114697     0.004505
PT67   PT        0.463706    0.154567    0.116890     0.004505
PT68   PT        0.465326    0.193719    0.078586     0.004505
AU69   AU        0.499868    0.191495    0.115181     0.007504
PT70   PT        0.570634    0.194582    0.115800     0.004505
PT71   PT        0.214110    0.269715    0.117517     0.004505
PT72   PT        0.248316    0.231296    0.116589     0.004505
PT73   PT        0.248585    0.268062    0.079259     0.004505
PT74   PT        0.284017    0.269258    0.114901     0.004505
PT75   PT        0.319617    0.229880    0.113513     0.004505
PT76   PT        0.322219    0.271350    0.076644     0.004505
AU77   AU        0.356823    0.231929    0.075634     0.007504
AU78   AU        0.357127    0.267224    0.114518     0.007504
AU79   AU        0.392456    0.229935    0.113579     0.007504
PT80   PT        0.390995    0.268703    0.075831     0.004505
PT81   PT        0.427029    0.230413    0.077662     0.004505
PT82   PT        0.428607    0.267945    0.113334     0.004505
AU83   AU        0.463366    0.229895    0.115384     0.007504
PT84   PT        0.462305    0.270130    0.076549     0.004505
AU85   AU        0.497610    0.233442    0.076764     0.007504
PT86   PT        0.498063    0.268237    0.114827     0.004505
PT87   PT        0.534069    0.231553    0.114033     0.004505
PT88   PT        0.533359    0.269469    0.076870     0.004505
PT89   PT        0.571556    0.268549    0.114618     0.004505
PT90   PT        0.605528    0.230735    0.116584     0.004505
PT91   PT        0.605250    0.265084    0.075868     0.004505
PT92   PT        0.641872    0.269423    0.114245     0.004505
PT93   PT        0.179511    0.308279    0.117207     0.004505
PT94   PT        0.213977    0.345897    0.115955     0.004505
PT95   PT        0.249497    0.307315    0.114732     0.004505
PT96   PT        0.248728    0.346483    0.075908     0.004505
PT97   PT        0.284577    0.308206    0.076752     0.004505
PT98   PT        0.284577    0.345365    0.112466     0.004505
PT99   PT        0.322261    0.308669    0.112775     0.004505
PT100   PT        0.319792    0.346412    0.075949     0.004505
AU101   AU        0.355514    0.307811    0.076806     0.007504
PT102   PT        0.354689    0.344959    0.112699     0.004505
PT103   PT        0.391677    0.306374    0.113376     0.004505
PT104   PT        0.391188    0.344272    0.075800     0.004505
PT105   PT        0.425931    0.308760    0.076299     0.004505
PT106   PT        0.427627    0.347494    0.114949     0.004505
PT107   PT        0.464297    0.306909    0.113989     0.004505
PT108   PT        0.462880    0.345306    0.076599     0.004505
PT109   PT        0.499742    0.307275    0.075901     0.004505
AU110   AU        0.500291    0.345134    0.113999     0.007504
PT111   PT        0.536035    0.305972    0.113405     0.004505
PT112   PT        0.536370    0.345122    0.076813     0.004505
PT113   PT        0.570691    0.306694    0.077509     0.004505
AU114   AU        0.570051    0.346064    0.112566     0.007504
PT115   PT        0.606558    0.306018    0.115048     0.004505
AU116   AU        0.605247    0.344574    0.076570     0.007504
PT117   PT        0.642006    0.347054    0.113591     0.004505
AU118   AU        0.675196    0.306727    0.114265     0.007504
AU119   AU        0.142779    0.426099    0.114168     0.007504
PT120   PT        0.177035    0.387922    0.115629     0.004505
AU121   AU        0.179101    0.422790    0.077705     0.007504
AU122   AU        0.212499    0.384030    0.076791     0.007504
PT123   PT        0.212365    0.423473    0.114842     0.004505
PT124   PT        0.247757    0.385231    0.113779     0.004505
PT125   PT        0.249623    0.424004    0.078501     0.004505
PT126   PT        0.282721    0.384691    0.077089     0.004505
PT127   PT        0.283505    0.422789    0.113272     0.004505
PT128   PT        0.318584    0.384713    0.112289     0.004505
AU129   AU        0.318452    0.423087    0.076470     0.007504
AU130   AU        0.356049    0.384369    0.075645     0.007504
AU131   AU        0.353606    0.424285    0.113275     0.007504
PT132   PT        0.391584    0.382794    0.112303     0.004505
AU133   AU        0.392728    0.421788    0.075821     0.007504
PT134   PT        0.429434    0.383012    0.076119     0.004505
PT135   PT        0.429156    0.422125    0.112747     0.004505
PT136   PT        0.464924    0.385734    0.112665     0.004505
AU137   AU        0.464434    0.421654    0.074518     0.007504
PT138   PT        0.499957    0.383430    0.075923     0.004505
AU139   AU        0.499553    0.422214    0.112918     0.007504
AU140   AU        0.534836    0.384322    0.112460     0.007504
PT141   PT        0.535125    0.422540    0.077017     0.004505
AU142   AU        0.571357    0.384596    0.077212     0.007504
AU143   AU        0.572042    0.422000    0.112631     0.007504
PT144   PT        0.606346    0.383446    0.114209     0.004505
AU145   AU        0.605844    0.423769    0.075542     0.007504
PT146   PT        0.641561    0.383008    0.075666     0.004505
AU147   AU        0.642529    0.423392    0.112345     0.007504
AU148   AU        0.678018    0.386670    0.112928     0.007504
PT149   PT        0.676593    0.423356    0.075879     0.004505
PT150   PT        0.713320    0.426180    0.113797     0.004505
AU151   AU        0.142178    0.497508    0.117209     0.007504
PT152   PT        0.177787    0.461466    0.115692     0.004505
PT153   PT        0.178464    0.498648    0.075712     0.004505
PT154   PT        0.213469    0.461423    0.077749     0.004505
AU155   AU        0.212736    0.498719    0.115017     0.007504
AU156   AU        0.247602    0.462191    0.114078     0.007504
PT157   PT        0.248708    0.498416    0.077810     0.004505
PT158   PT        0.283876    0.462156    0.076396     0.004505
PT159   PT        0.284426    0.502249    0.113813     0.004505
PT160   PT        0.317765    0.462433    0.113823     0.004505
PT161   PT        0.319388    0.501359    0.076460     0.004505
AU162   AU        0.356433    0.462935    0.076110     0.007504
PT163   PT        0.356252    0.499170    0.113007     0.004505
AU164   AU        0.392330    0.460679    0.112760     0.007504
AU165   AU        0.391727    0.500462    0.075748     0.007504
AU166   AU        0.427334    0.462521    0.074798     0.007504
AU167   AU        0.425340    0.501056    0.112604     0.007504
AU168   AU        0.463363    0.461593    0.112274     0.007504
AU169   AU        0.461909    0.499998    0.076284     0.007504
AU170   AU        0.500126    0.460817    0.076186     0.007504
AU171   AU        0.500680    0.500893    0.113181     0.007504
AU172   AU        0.535526    0.459644    0.113605     0.007504
PT173   PT        0.535941    0.498339    0.075335     0.004505
PT174   PT        0.571825    0.460724    0.075360     0.004505
AU175   AU        0.569516    0.499746    0.112659     0.007504
PT176   PT        0.606601    0.462500    0.112856     0.004505
PT177   PT        0.605317    0.500962    0.076423     0.004505
PT178   PT        0.641098    0.461538    0.076015     0.004505
PT179   PT        0.640675    0.498943    0.113598     0.004505
PT180   PT        0.679416    0.460669    0.111635     0.004505
PT181   PT        0.677743    0.497989    0.077043     0.004505
PT182   PT        0.712499    0.500854    0.115115     0.004505
AU183   AU        0.178001    0.536543    0.114455     0.007504
AU184   AU        0.214671    0.535420    0.079512     0.007504
PT185   PT        0.214208    0.576526    0.113302     0.004505
PT186   PT        0.249107    0.539060    0.113942     0.004505
PT187   PT        0.249646    0.576291    0.077282     0.004505
PT188   PT        0.283521    0.541366    0.077313     0.004505
PT189   PT        0.285458    0.577880    0.113245     0.004505
PT190   PT        0.319784    0.539965    0.113364     0.004505
AU191   AU        0.319080    0.579298    0.076602     0.007504
PT192   PT        0.355865    0.538707    0.075381     0.004505
PT193   PT        0.355673    0.576857    0.112560     0.004505
PT194   PT        0.390041    0.536860    0.112399     0.004505
AU195   AU        0.391709    0.575826    0.076260     0.007504
AU196   AU        0.426159    0.538728    0.074332     0.007504
AU197   AU        0.428228    0.576609    0.112405     0.007504
PT198   PT        0.461860    0.539642    0.112803     0.004505
AU199   AU        0.463533    0.577483    0.074280     0.007504
AU200   AU        0.497629    0.539849    0.077622     0.007504
PT201   PT        0.498489    0.580678    0.112060     0.004505
PT202   PT        0.535398    0.539543    0.111888     0.004505
AU203   AU        0.535410    0.579436    0.076811     0.007504
PT204   PT        0.570747    0.538936    0.076226     0.004505
PT205   PT        0.572814    0.578878    0.113612     0.004505
PT206   PT        0.607746    0.536380    0.112792     0.004505
AU207   AU        0.605666    0.576463    0.075959     0.007504
PT208   PT        0.641785    0.538913    0.076662     0.004505
AU209   AU        0.642439    0.575271    0.113874     0.007504
AU210   AU        0.675400    0.538066    0.112520     0.007504
PT211   PT        0.180357    0.618543    0.115651     0.004505
PT212   PT        0.216293    0.654615    0.115290     0.004505
AU213   AU        0.248275    0.616213    0.115285     0.007504
PT214   PT        0.249694    0.653331    0.077085     0.004505
PT215   PT        0.284222    0.615301    0.077881     0.004505
PT216   PT        0.283841    0.654565    0.115662     0.004505
PT217   PT        0.320932    0.615568    0.114311     0.004505
PT218   PT        0.321425    0.652705    0.077688     0.004505
AU219   AU        0.354908    0.615782    0.076922     0.007504
PT220   PT        0.354169    0.656448    0.114988     0.004505
PT221   PT        0.390803    0.615179    0.112876     0.004505
PT222   PT        0.391114    0.654101    0.077230     0.004505
PT223   PT        0.427916    0.616826    0.075584     0.004505
PT224   PT        0.426878    0.656564    0.114574     0.004505
AU225   AU        0.462715    0.616429    0.114389     0.007504
PT226   PT        0.464082    0.654796    0.076305     0.004505
PT227   PT        0.499059    0.617596    0.076094     0.004505
PT228   PT        0.498741    0.655176    0.113486     0.004505
AU229   AU        0.535517    0.615797    0.112380     0.007504
PT230   PT        0.535553    0.655067    0.075153     0.004505
PT231   PT        0.568301    0.617987    0.076189     0.004505
PT232   PT        0.571079    0.653674    0.115082     0.004505
PT233   PT        0.606401    0.616738    0.114254     0.004505
PT234   PT        0.603648    0.655484    0.077123     0.004505
PT235   PT        0.641460    0.654543    0.114487     0.004505
PT236   PT        0.679982    0.617987    0.116423     0.004505
AU237   AU        0.248968    0.693150    0.116780     0.007504
PT238   PT        0.284975    0.730846    0.116005     0.004505
AU239   AU        0.318707    0.692436    0.113058     0.007504
PT240   PT        0.356051    0.691894    0.077775     0.004505
PT241   PT        0.355797    0.731838    0.115132     0.004505
AU242   AU        0.390819    0.695675    0.113808     0.007504
PT243   PT        0.389692    0.732386    0.075533     0.004505
PT244   PT        0.426842    0.695737    0.077804     0.004505
PT245   PT        0.428214    0.731334    0.114456     0.004505
PT246   PT        0.462991    0.693669    0.113894     0.004505
PT247   PT        0.462416    0.731497    0.077477     0.004505
PT248   PT        0.498654    0.692356    0.076518     0.004505
PT249   PT        0.499142    0.731432    0.113860     0.004505
PT250   PT        0.534393    0.694149    0.115486     0.004505
AU251   AU        0.570733    0.730419    0.113220     0.007504
PT252   PT        0.606113    0.693104    0.114959     0.004505
PT253   PT        0.393321    0.767200    0.116564     0.004505
AU254   AU        0.464377    0.768654    0.115354     0.007504
AU255   AU        0.284155    0.117852    0.191421     0.007504
PT256   PT        0.355730    0.114869    0.191357     0.004505
PT257   PT        0.393744    0.078244    0.190768     0.004505
AU258   AU        0.392386    0.116683    0.152339     0.007504
PT259   PT        0.427452    0.116022    0.190803     0.004505
PT260   PT        0.462389    0.078574    0.190544     0.004505
PT261   PT        0.463419    0.115623    0.154735     0.004505
AU262   AU        0.498170    0.115158    0.192053     0.007504
PT263   PT        0.571624    0.118038    0.191938     0.004505
PT264   PT        0.212507    0.194357    0.192012     0.004505
PT265   PT        0.248524    0.153291    0.191395     0.004505
AU266   AU        0.247865    0.192898    0.154624     0.007504
PT267   PT        0.281247    0.156283    0.153246     0.004505
PT268   PT        0.285198    0.190788    0.191690     0.004505
PT269   PT        0.322370    0.153961    0.189328     0.004505
PT270   PT        0.320611    0.191703    0.152436     0.004505
PT271   PT        0.356564    0.153230    0.152670     0.004505
AU272   AU        0.358096    0.192954    0.187106     0.007504
AU273   AU        0.391144    0.153516    0.189161     0.007504
PT274   PT        0.392348    0.190698    0.151283     0.004505
AU275   AU        0.427555    0.153879    0.151762     0.007504
AU276   AU        0.425970    0.190417    0.188977     0.007504
PT277   PT        0.462367    0.153473    0.190980     0.004505
PT278   PT        0.463874    0.191385    0.153782     0.004505
PT279   PT        0.498813    0.154572    0.154543     0.004505
PT280   PT        0.498847    0.192885    0.190588     0.004505
AU281   AU        0.534008    0.154873    0.191082     0.007504
AU282   AU        0.533540    0.193464    0.152104     0.007504
AU283   AU        0.571650    0.153946    0.153350     0.007504
AU284   AU        0.571139    0.191553    0.190458     0.007504
PT285   PT        0.606512    0.155508    0.190904     0.004505
AU286   AU        0.605203    0.192882    0.152628     0.007504
PT287   PT        0.642664    0.192902    0.188639     0.004505
PT288   PT        0.143532    0.268069    0.191180     0.004505
PT289   PT        0.178477    0.231681    0.193468     0.004505
PT290   PT        0.180088    0.268240    0.152998     0.004505
PT291   PT        0.215970    0.232464    0.153830     0.004505
PT292   PT        0.213126    0.270453    0.189546     0.004505
AU293   AU        0.248786    0.232035    0.191422     0.007504
PT294   PT        0.249678    0.269812    0.150688     0.004505
PT295   PT        0.283479    0.229597    0.154140     0.004505
AU296   AU        0.284516    0.269832    0.189464     0.007504
PT297   PT        0.322539    0.229065    0.189288     0.004505
AU298   AU        0.319558    0.265939    0.152945     0.007504
PT299   PT        0.358057    0.229357    0.153104     0.004505
AU300   AU        0.357687    0.268194    0.190332     0.007504
AU301   AU        0.392363    0.227895    0.188996     0.007504
AU302   AU        0.393006    0.269139    0.152183     0.007504
AU303   AU        0.427667    0.229797    0.151348     0.007504
AU304   AU        0.427885    0.268561    0.189453     0.007504
PT305   PT        0.463569    0.231225    0.188506     0.004505
PT306   PT        0.463474    0.267523    0.152020     0.004505
PT307   PT        0.498247    0.230416    0.152581     0.004505
AU308   AU        0.497095    0.268900    0.188838     0.007504
AU309   AU        0.534107    0.228841    0.191761     0.007504
PT310   PT        0.532371    0.269929    0.150162     0.004505
PT311   PT        0.570799    0.230981    0.153283     0.004505
PT312   PT        0.572222    0.266194    0.191481     0.004505
PT313   PT        0.606944    0.229071    0.190293     0.004505
PT314   PT        0.605283    0.267098    0.152079     0.004505
PT315   PT        0.642395    0.231534    0.151118     0.004505
PT316   PT        0.641070    0.268150    0.190158     0.004505
PT317   PT        0.675728    0.231138    0.189652     0.004505
PT318   PT        0.676149    0.269333    0.153632     0.004505
PT319   PT        0.711844    0.267885    0.188512     0.004505
AU320   AU        0.108122    0.306182    0.188211     0.007504
PT321   PT        0.143167    0.303925    0.152947     0.004505
PT322   PT        0.141244    0.345736    0.191479     0.004505
AU323   AU        0.176488    0.306545    0.192222     0.007504
PT324   PT        0.177315    0.346382    0.153290     0.004505
PT325   PT        0.214169    0.308435    0.154188     0.004505
AU326   AU        0.212366    0.345251    0.191652     0.007504
AU327   AU        0.249598    0.306859    0.190066     0.007504
AU328   AU        0.249688    0.345844    0.152039     0.007504
AU329   AU        0.285351    0.308838    0.151659     0.007504
AU330   AU        0.285183    0.343817    0.190912     0.007504
PT331   PT        0.319726    0.305556    0.187753     0.004505
AU332   AU        0.320583    0.346701    0.150869     0.007504
AU333   AU        0.355990    0.306585    0.151938     0.007504
AU334   AU        0.358326    0.343973    0.189086     0.007504
PT335   PT        0.392191    0.305878    0.188981     0.004505
PT336   PT        0.390869    0.343657    0.150683     0.004505
AU337   AU        0.426622    0.306455    0.150436     0.007504
PT338   PT        0.427709    0.345008    0.188430     0.004505
AU339   AU        0.464188    0.305916    0.188549     0.007504
PT340   PT        0.462594    0.344991    0.150456     0.004505
AU341   AU        0.499985    0.308818    0.150105     0.007504
AU342   AU        0.498144    0.346489    0.188230     0.007504
PT343   PT        0.534944    0.307579    0.189615     0.004505
AU344   AU        0.536378    0.344498    0.150838     0.007504
PT345   PT        0.570389    0.305323    0.151443     0.004505
PT346   PT        0.572007    0.344579    0.188795     0.004505
PT347   PT        0.605603    0.305207    0.189170     0.004505
AU348   AU        0.606587    0.343604    0.150729     0.007504
AU349   AU        0.641330    0.307300    0.152353     0.007504
PT350   PT        0.640913    0.344894    0.188894     0.004505
PT351   PT        0.678155    0.306520    0.191300     0.004505
PT352   PT        0.677778    0.343034    0.151634     0.004505
PT353   PT        0.711780    0.306713    0.152116     0.004505
AU354   AU        0.712750    0.346875    0.188213     0.007504
AU355   AU        0.747668    0.304901    0.189778     0.007504
PT356   PT        0.073522    0.423985    0.192090     0.004505
PT357   PT        0.108555    0.385498    0.192757     0.004505
PT358   PT        0.107745    0.424392    0.155435     0.004505
PT359   PT        0.143334    0.387234    0.153224     0.004505
PT360   PT        0.140778    0.422669    0.191958     0.004505
AU361   AU        0.177022    0.385161    0.188706     0.007504
PT362   PT        0.175972    0.425058    0.151940     0.004505
AU363   AU        0.212864    0.383134    0.152361     0.007504
AU364   AU        0.211251    0.421479    0.191433     0.007504
AU365   AU        0.248659    0.383663    0.189777     0.007504
AU366   AU        0.247734    0.422703    0.152701     0.007504
PT367   PT        0.283647    0.384085    0.150725     0.004505
PT368   PT        0.283915    0.421916    0.189174     0.004505
AU369   AU        0.320413    0.383926    0.191027     0.007504
PT370   PT        0.319078    0.424874    0.152095     0.004505
PT371   PT        0.355981    0.385136    0.150232     0.004505
AU372   AU        0.356094    0.420308    0.188957     0.007504
AU373   AU        0.392159    0.384618    0.189044     0.007504
PT374   PT        0.391157    0.422347    0.149166     0.004505
AU375   AU        0.427426    0.385539    0.151551     0.007504
PT376   PT        0.425626    0.423096    0.189764     0.004505
PT377   PT        0.462494    0.383627    0.186175     0.004505
AU378   AU        0.463347    0.421634    0.152113     0.007504
AU379   AU        0.500005    0.382617    0.149181     0.007504
AU380   AU        0.500318    0.420838    0.189021     0.007504
AU381   AU        0.536903    0.382621    0.189864     0.007504
PT382   PT        0.536170    0.421486    0.151423     0.004505
AU383   AU        0.571096    0.383029    0.149826     0.007504
PT384   PT        0.570565    0.422213    0.187505     0.004505
AU385   AU        0.605602    0.383873    0.188860     0.007504
PT386   PT        0.606914    0.422323    0.150094     0.004505
PT387   PT        0.642941    0.384165    0.149622     0.004505
PT388   PT        0.642697    0.423977    0.188752     0.004505
PT389   PT        0.677824    0.384965    0.188364     0.004505
AU390   AU        0.676923    0.424537    0.150802     0.007504
PT391   PT        0.711773    0.386634    0.150052     0.004505
PT392   PT        0.712970    0.424567    0.189185     0.004505
AU393   AU        0.746826    0.386392    0.189556     0.007504
AU394   AU        0.746059    0.423299    0.151157     0.007504
PT395   PT        0.794082    0.458963    0.181839     0.004505
AU396   AU        0.073513    0.499428    0.194632     0.007504
PT397   PT        0.106893    0.461041    0.191860     0.004505
AU398   AU        0.105834    0.497981    0.154746     0.007504
PT399   PT        0.142077    0.461040    0.153685     0.004505
PT400   PT        0.142405    0.499596    0.191402     0.004505
PT401   PT        0.178383    0.462257    0.188430     0.004505
PT402   PT        0.177984    0.500336    0.151794     0.004505
AU403   AU        0.213290    0.461055    0.153507     0.007504
AU404   AU        0.211644    0.500943    0.190308     0.007504
PT405   PT        0.248338    0.460580    0.188925     0.004505
AU406   AU        0.248278    0.498908    0.152561     0.007504
AU407   AU        0.284051    0.462895    0.151022     0.007504
AU408   AU        0.283653    0.500880    0.189897     0.007504
AU409   AU        0.319296    0.462970    0.190533     0.007504
AU410   AU        0.318494    0.499313    0.152381     0.007504
PT411   PT        0.356286    0.462800    0.151824     0.004505
AU412   AU        0.353730    0.501583    0.189360     0.007504
AU413   AU        0.392891    0.462198    0.190891     0.007504
AU414   AU        0.390423    0.501740    0.152138     0.007504
PT415   PT        0.428116    0.459874    0.148920     0.004505
AU416   AU        0.427828    0.502139    0.191094     0.007504
AU417   AU        0.462585    0.460609    0.187798     0.007504
AU418   AU        0.463487    0.500370    0.150863     0.007504
AU419   AU        0.499435    0.462048    0.150229     0.007504
AU420   AU        0.501200    0.501698    0.189374     0.007504
PT421   PT        0.535658    0.460358    0.189127     0.004505
AU422   AU        0.535515    0.501941    0.151304     0.007504
PT423   PT        0.572151    0.461777    0.151769     0.004505
PT424   PT        0.572765    0.502161    0.187903     0.004505
AU425   AU        0.607199    0.461012    0.188595     0.007504
PT426   PT        0.606987    0.501431    0.150444     0.004505
AU427   AU        0.643301    0.460884    0.148536     0.007504
AU428   AU        0.642415    0.499562    0.186621     0.007504
AU429   AU        0.678715    0.462683    0.187020     0.007504
AU430   AU        0.678344    0.500926    0.149599     0.007504
AU431   AU        0.714626    0.463161    0.152249     0.007504
PT432   PT        0.713469    0.501642    0.188966     0.004505
PT433   PT        0.746213    0.462880    0.191768     0.004505
PT434   PT        0.747640    0.502001    0.152685     0.004505
AU435   AU        0.781765    0.499238    0.194193     0.007504
PT436   PT        0.106013    0.536927    0.192274     0.004505
AU437   AU        0.142425    0.535323    0.153574     0.007504
AU438   AU        0.143089    0.579100    0.191972     0.007504
AU439   AU        0.178306    0.541032    0.188184     0.007504
PT440   PT        0.179015    0.579139    0.151744     0.004505
PT441   PT        0.214030    0.539259    0.149958     0.004505
AU442   AU        0.213725    0.579401    0.189894     0.007504
AU443   AU        0.247650    0.537595    0.188472     0.007504
AU444   AU        0.249943    0.578590    0.151525     0.007504
PT445   PT        0.285491    0.541028    0.152519     0.004505
AU446   AU        0.283250    0.579742    0.190661     0.007504
AU447   AU        0.319999    0.541171    0.189705     0.007504
AU448   AU        0.320589    0.578937    0.150537     0.007504
AU449   AU        0.355742    0.539137    0.150392     0.007504
AU450   AU        0.354705    0.579396    0.192124     0.007504
PT451   PT        0.390969    0.541617    0.191008     0.004505
AU452   AU        0.389884    0.577401    0.150356     0.007504
AU453   AU        0.427577    0.538767    0.150886     0.007504
AU454   AU        0.427258    0.579778    0.189473     0.007504
AU455   AU        0.462008    0.540893    0.189701     0.007504
PT456   PT        0.463079    0.578768    0.150556     0.004505
AU457   AU        0.499386    0.541717    0.151945     0.007504
AU458   AU        0.500017    0.578900    0.191567     0.007504
PT459   PT        0.538248    0.540009    0.189097     0.004505
AU460   AU        0.532717    0.578216    0.148686     0.007504
AU461   AU        0.572621    0.539430    0.151137     0.007504
AU462   AU        0.570132    0.579473    0.189515     0.007504
AU463   AU        0.608167    0.539015    0.187902     0.007504
PT464   PT        0.607992    0.579059    0.150434     0.004505
PT465   PT        0.643935    0.538418    0.151411     0.004505
AU466   AU        0.642104    0.580231    0.188287     0.007504
PT467   PT        0.678479    0.540609    0.190318     0.004505
AU468   AU        0.675936    0.578109    0.150887     0.007504
PT469   PT        0.711742    0.539127    0.151199     0.004505
AU470   AU        0.713026    0.577633    0.190155     0.007504
AU471   AU        0.749962    0.538245    0.190537     0.007504
PT472   PT        0.109636    0.616943    0.191806     0.004505
AU473   AU        0.145190    0.617442    0.154772     0.007504
AU474   AU        0.143794    0.655575    0.191229     0.007504
PT475   PT        0.178906    0.617720    0.189468     0.004505
PT476   PT        0.180295    0.654442    0.153159     0.004505
AU477   AU        0.213496    0.616842    0.152621     0.007504
PT478   PT        0.213570    0.655778    0.191005     0.004505
AU479   AU        0.248416    0.617179    0.191473     0.007504
PT480   PT        0.248491    0.653962    0.152551     0.004505
AU481   AU        0.285701    0.615927    0.151191     0.007504
AU482   AU        0.285787    0.657073    0.190579     0.007504
AU483   AU        0.319956    0.615893    0.188315     0.007504
PT484   PT        0.319657    0.655552    0.151762     0.004505
PT485   PT        0.356192    0.619041    0.150275     0.004505
PT486   PT        0.354765    0.655937    0.188777     0.004505
AU487   AU        0.390787    0.617351    0.187908     0.007504
PT488   PT        0.392531    0.654172    0.151530     0.004505
AU489   AU        0.427936    0.616661    0.151372     0.007504
PT490   PT        0.426376    0.655755    0.188726     0.004505
AU491   AU        0.463638    0.614895    0.189426     0.007504
PT492   PT        0.463178    0.655864    0.150008     0.004505
AU493   AU        0.497996    0.617546    0.151574     0.007504
AU494   AU        0.499474    0.655400    0.187051     0.007504
PT495   PT        0.535375    0.617412    0.188206     0.004505
AU496   AU        0.534192    0.656626    0.150701     0.007504
PT497   PT        0.571484    0.617061    0.151913     0.004505
AU498   AU        0.571745    0.656902    0.188303     0.007504
AU499   AU        0.607812    0.618866    0.189620     0.007504
AU500   AU        0.606475    0.654828    0.152151     0.007504
PT501   PT        0.643228    0.619395    0.152740     0.004505
PT502   PT        0.644066    0.656758    0.190879     0.004505
PT503   PT        0.678960    0.617113    0.189277     0.004505
PT504   PT        0.678945    0.654669    0.152282     0.004505
AU505   AU        0.713511    0.617493    0.154051     0.007504
AU506   AU        0.712681    0.655617    0.190217     0.007504
AU507   AU        0.748199    0.618802    0.191317     0.007504
AU508   AU        0.178450    0.692562    0.191965     0.007504
PT509   PT        0.215630    0.692711    0.152938     0.004505
AU510   AU        0.213371    0.729839    0.191675     0.007504
AU511   AU        0.249608    0.693886    0.191669     0.007504
AU512   AU        0.248385    0.731345    0.153695     0.007504
PT513   PT        0.283353    0.693031    0.153529     0.004505
PT514   PT        0.283695    0.731922    0.191446     0.004505
PT515   PT        0.320707    0.693908    0.188274     0.004505
AU516   AU        0.320846    0.732309    0.153459     0.007504
AU517   AU        0.355403    0.694769    0.151305     0.007504
PT518   PT        0.356605    0.731722    0.190022     0.004505
AU519   AU        0.391401    0.693279    0.189181     0.007504
AU520   AU        0.393234    0.730953    0.153953     0.007504
AU521   AU        0.425803    0.693577    0.150695     0.007504
AU522   AU        0.429937    0.732018    0.188606     0.007504
PT523   PT        0.463163    0.692576    0.188199     0.004505
AU524   AU        0.463305    0.732128    0.151371     0.007504
PT525   PT        0.497199    0.694328    0.151008     0.004505
PT526   PT        0.499459    0.731150    0.189750     0.004505
AU527   AU        0.533465    0.695805    0.189203     0.007504
PT528   PT        0.533674    0.732953    0.152994     0.004505
PT529   PT        0.569289    0.693238    0.150491     0.004505
AU530   AU        0.571040    0.730393    0.189960     0.007504
AU531   AU        0.606815    0.692885    0.189678     0.007504
PT532   PT        0.606139    0.730839    0.153729     0.004505
AU533   AU        0.642137    0.692368    0.152195     0.007504
PT534   PT        0.640344    0.732206    0.189302     0.004505
PT535   PT        0.677179    0.692496    0.190723     0.004505
AU536   AU        0.249516    0.769102    0.190627     0.007504
PT537   PT        0.283715    0.767975    0.153646     0.004505
PT538   PT        0.283689    0.805751    0.189527     0.004505
PT539   PT        0.321093    0.769698    0.189537     0.004505
AU540   AU        0.359434    0.769248    0.153648     0.007504
PT541   PT        0.358632    0.807944    0.189886     0.004505
AU542   AU        0.394171    0.770268    0.190765     0.007504
PT543   PT        0.393502    0.807170    0.152529     0.004505
PT544   PT        0.428162    0.769533    0.152594     0.004505
AU545   AU        0.427768    0.807979    0.190402     0.007504
AU546   AU        0.462112    0.770232    0.190373     0.007504
PT547   PT        0.462195    0.807989    0.152734     0.004505
PT548   PT        0.497924    0.768391    0.152414     0.004505
PT549   PT        0.497318    0.807061    0.190390     0.004505
PT550   PT        0.533648    0.769892    0.190766     0.004505
PT551   PT        0.570896    0.768513    0.152895     0.004505
AU552   AU        0.571086    0.806115    0.191133     0.007504
PT553   PT        0.604114    0.768439    0.191696     0.004505
PT554   PT        0.392466    0.847013    0.190959     0.004505
PT555   PT        0.463143    0.845530    0.189676     0.004505
PT556   PT        0.356765    0.041245    0.266465     0.004505
AU557   AU        0.428020    0.041631    0.268259     0.007504
PT558   PT        0.498356    0.041296    0.266953     0.004505
AU559   AU        0.214781    0.118185    0.268208     0.007504
PT560   PT        0.249114    0.079164    0.268489     0.004505
PT561   PT        0.248538    0.117032    0.231616     0.004505
PT562   PT        0.285834    0.115250    0.269042     0.004505
PT563   PT        0.321786    0.078059    0.269281     0.004505
AU564   AU        0.319664    0.116801    0.229592     0.007504
PT565   PT        0.356852    0.078530    0.230361     0.004505
PT566   PT        0.355966    0.115845    0.267683     0.004505
PT567   PT        0.392905    0.080365    0.268360     0.004505
PT568   PT        0.391912    0.116109    0.228819     0.004505
PT569   PT        0.427797    0.078469    0.229649     0.004505
PT570   PT        0.428392    0.115814    0.267877     0.004505
PT571   PT        0.463101    0.078521    0.266309     0.004505
AU572   AU        0.463814    0.115070    0.227351     0.007504
PT573   PT        0.499865    0.079133    0.228639     0.004505
AU574   AU        0.498010    0.114300    0.268484     0.007504
PT575   PT        0.533778    0.079464    0.267856     0.004505
AU576   AU        0.534361    0.117377    0.228902     0.007504
PT577   PT        0.570798    0.114549    0.266976     0.004505
AU578   AU        0.606612    0.077863    0.267798     0.007504
PT579   PT        0.605695    0.116991    0.230609     0.004505
PT580   PT        0.642429    0.116559    0.268187     0.004505
AU581   AU        0.143900    0.190791    0.268492     0.007504
PT582   PT        0.179603    0.155098    0.267973     0.004505
PT583   PT        0.177670    0.192788    0.229964     0.004505
PT584   PT        0.214073    0.153935    0.230831     0.004505
AU585   AU        0.213234    0.191720    0.268170     0.007504
PT586   PT        0.250104    0.153627    0.269170     0.004505
AU587   AU        0.248156    0.191812    0.229917     0.007504
AU588   AU        0.283200    0.153387    0.230916     0.007504
AU589   AU        0.285005    0.193202    0.267189     0.007504
PT590   PT        0.320919    0.154071    0.268165     0.004505
AU591   AU        0.321662    0.192347    0.226255     0.007504
PT592   PT        0.355947    0.154443    0.228747     0.004505
AU593   AU        0.356362    0.191208    0.267320     0.007504
PT594   PT        0.390051    0.152762    0.267137     0.004505
AU595   AU        0.392082    0.190756    0.226015     0.007504
PT596   PT        0.425719    0.152093    0.230200     0.004505
AU597   AU        0.427607    0.192146    0.267273     0.007504
AU598   AU        0.464523    0.151636    0.269602     0.007504
AU599   AU        0.461896    0.192344    0.226477     0.007504
AU600   AU        0.496981    0.152750    0.227366     0.007504
PT601   PT        0.499429    0.192171    0.268499     0.004505
PT602   PT        0.534061    0.153050    0.266897     0.004505
AU603   AU        0.536485    0.193334    0.229448     0.007504
PT604   PT        0.571444    0.154249    0.229726     0.004505
AU605   AU        0.572323    0.191972    0.267618     0.007504
AU606   AU        0.607334    0.154930    0.267018     0.007504
PT607   PT        0.607625    0.190676    0.228004     0.004505
PT608   PT        0.642148    0.155375    0.228878     0.004505
PT609   PT        0.642305    0.190915    0.265639     0.004505
AU610   AU        0.678034    0.155934    0.266179     0.007504
PT611   PT        0.676911    0.191265    0.228118     0.004505
PT612   PT        0.712798    0.191829    0.268190     0.004505
PT613   PT        0.060307    0.261647    0.298617     0.004505
PT614   PT        0.108933    0.228579    0.266849     0.004505
PT615   PT        0.108096    0.269347    0.225482     0.004505
AU616   AU        0.143133    0.231180    0.228416     0.007504
PT617   PT        0.142047    0.267908    0.267507     0.004505
AU618   AU        0.176388    0.229623    0.268754     0.007504
AU619   AU        0.175784    0.267760    0.228468     0.007504
AU620   AU        0.213273    0.229354    0.229598     0.007504
PT621   PT        0.211807    0.269066    0.267688     0.004505
AU622   AU        0.247526    0.229342    0.265935     0.007504
AU623   AU        0.247989    0.269214    0.227717     0.007504
PT624   PT        0.285627    0.230193    0.230309     0.004505
AU625   AU        0.284059    0.268368    0.269088     0.007504
PT626   PT        0.318720    0.229923    0.266098     0.004505
AU627   AU        0.321125    0.266848    0.226458     0.007504
PT628   PT        0.358249    0.230179    0.228175     0.004505
PT629   PT        0.357946    0.266675    0.266211     0.004505
PT630   PT        0.391920    0.228894    0.264930     0.004505
AU631   AU        0.393380    0.269358    0.228323     0.007504
AU632   AU        0.427631    0.229708    0.229535     0.007504
PT633   PT        0.427048    0.265583    0.268035     0.004505
AU634   AU        0.463306    0.230240    0.268084     0.007504
PT635   PT        0.462510    0.266317    0.228020     0.004505
PT636   PT        0.497328    0.227655    0.228961     0.004505
PT637   PT        0.497754    0.268289    0.268295     0.004505
PT638   PT        0.536375    0.231404    0.268293     0.004505
AU639   AU        0.535091    0.269153    0.230406     0.007504
AU640   AU        0.571344    0.230620    0.228614     0.007504
PT641   PT        0.572057    0.267298    0.266647     0.004505
PT642   PT        0.606608    0.229183    0.267857     0.004505
PT643   PT        0.607514    0.265624    0.228214     0.004505
PT644   PT        0.642415    0.228663    0.229013     0.004505
AU645   AU        0.643893    0.267506    0.265587     0.007504
PT646   PT        0.677511    0.228790    0.266046     0.004505
AU647   AU        0.678455    0.269016    0.226631     0.007504
AU648   AU        0.712070    0.230908    0.228635     0.007504
AU649   AU        0.712368    0.269394    0.265438     0.007504
PT650   PT        0.745810    0.230850    0.267546     0.004505
AU651   AU        0.771374    0.245268    0.225782     0.007504
PT652   PT        0.785015    0.271089    0.268419     0.004505
PT653   PT        0.074977    0.345860    0.269761     0.004505
PT654   PT        0.109367    0.308320    0.266732     0.004505
PT655   PT        0.107345    0.347357    0.231935     0.004505
PT656   PT        0.142273    0.305339    0.227457     0.004505
PT657   PT        0.142102    0.345668    0.267612     0.004505
PT658   PT        0.176090    0.305350    0.267183     0.004505
PT659   PT        0.177118    0.343215    0.229304     0.004505
PT660   PT        0.211108    0.305211    0.226906     0.004505
PT661   PT        0.211982    0.345016    0.266657     0.004505
PT662   PT        0.247104    0.307731    0.268261     0.004505
AU663   AU        0.249340    0.348517    0.226975     0.007504
AU664   AU        0.283489    0.307611    0.229905     0.007504
AU665   AU        0.285418    0.346816    0.264601     0.007504
AU666   AU        0.320182    0.307033    0.267187     0.007504
AU667   AU        0.321440    0.346047    0.226315     0.007504
AU668   AU        0.357310    0.304723    0.230978     0.007504
PT669   PT        0.357426    0.346751    0.265979     0.004505
AU670   AU        0.392392    0.308674    0.269505     0.007504
PT671   PT        0.392761    0.346831    0.229801     0.004505
AU672   AU        0.428191    0.306416    0.225859     0.007504
AU673   AU        0.429364    0.344918    0.265345     0.007504
AU674   AU        0.464843    0.305446    0.265060     0.007504
AU675   AU        0.463417    0.343737    0.228152     0.007504
AU676   AU        0.499074    0.306479    0.227210     0.007504
PT677   PT        0.499184    0.343639    0.266959     0.004505
AU678   AU        0.535101    0.305375    0.267599     0.007504
PT679   PT        0.533318    0.344653    0.228021     0.004505
PT680   PT        0.572119    0.305309    0.227756     0.004505
PT681   PT        0.568133    0.346498    0.264793     0.004505
AU682   AU        0.608165    0.303623    0.265947     0.007504
AU683   AU        0.607118    0.346834    0.224488     0.007504
PT684   PT        0.642674    0.305830    0.226441     0.004505
AU685   AU        0.643578    0.344737    0.265685     0.007504
AU686   AU        0.677278    0.307034    0.264376     0.007504
AU687   AU        0.677607    0.347592    0.226244     0.007504
PT688   PT        0.713498    0.308961    0.227238     0.004505
PT689   PT        0.713327    0.347419    0.264542     0.004505
PT690   PT        0.748764    0.306247    0.269303     0.004505
AU691   AU        0.748588    0.347484    0.225087     0.007504
AU692   AU        0.781148    0.347264    0.266471     0.007504
PT693   PT        0.040739    0.383984    0.271308     0.004505
PT694   PT        0.073077    0.385457    0.229518     0.004505
PT695   PT        0.073281    0.425120    0.268406     0.004505
AU696   AU        0.106350    0.387574    0.269387     0.007504
PT697   PT        0.106409    0.424489    0.229839     0.004505
PT698   PT        0.143466    0.386635    0.228699     0.004505
PT699   PT        0.139538    0.424120    0.269315     0.004505
AU700   AU        0.177478    0.383574    0.265244     0.007504
AU701   AU        0.176545    0.423778    0.230397     0.007504
AU702   AU        0.211445    0.383501    0.227904     0.007504
AU703   AU        0.212968    0.423603    0.263906     0.007504
PT704   PT        0.249002    0.382562    0.265473     0.004505
AU705   AU        0.248309    0.423669    0.227649     0.007504
AU706   AU        0.285307    0.384889    0.228025     0.007504
AU707   AU        0.284218    0.424516    0.266163     0.007504
AU708   AU        0.322175    0.385240    0.266454     0.007504
AU709   AU        0.320805    0.422708    0.225976     0.007504
AU710   AU        0.357074    0.385846    0.230854     0.007504
AU711   AU        0.355507    0.424700    0.266648     0.007504
AU712   AU        0.393561    0.385868    0.267428     0.007504
AU713   AU        0.392365    0.423790    0.228905     0.007504
AU714   AU        0.427034    0.383797    0.227831     0.007504
AU715   AU        0.428599    0.423739    0.266204     0.007504
PT716   PT        0.463374    0.384944    0.268942     0.004505
AU717   AU        0.462715    0.426018    0.230541     0.007504
AU718   AU        0.499661    0.384472    0.226689     0.007504
PT719   PT        0.497960    0.425360    0.269390     0.004505
PT720   PT        0.533109    0.383152    0.265034     0.004505
AU721   AU        0.534344    0.423189    0.226689     0.007504
AU722   AU        0.570925    0.382273    0.226871     0.007504
AU723   AU        0.569744    0.419815    0.264066     0.007504
PT724   PT        0.606857    0.383280    0.264586     0.004505
AU725   AU        0.606647    0.423302    0.225532     0.007504
PT726   PT        0.642563    0.383482    0.226871     0.004505
PT727   PT        0.643343    0.420025    0.263793     0.004505
PT728   PT        0.678064    0.384369    0.263459     0.004505
AU729   AU        0.678163    0.422037    0.227756     0.007504
PT730   PT        0.713662    0.385900    0.226079     0.004505
PT731   PT        0.712158    0.421990    0.265499     0.004505
PT732   PT        0.746497    0.384848    0.267277     0.004505
AU733   AU        0.747602    0.423256    0.229270     0.007504
PT734   PT        0.781764    0.386143    0.231856     0.004505
PT735   PT        0.779721    0.423444    0.268677     0.004505
PT736   PT        0.815071    0.386653    0.268866     0.004505
PT737   PT        0.038931    0.462649    0.269003     0.004505
PT738   PT        0.073185    0.461693    0.230411     0.004505
PT739   PT        0.073718    0.500124    0.267840     0.004505
AU740   AU        0.107278    0.463094    0.267803     0.007504
AU741   AU        0.108174    0.500723    0.229527     0.007504
AU742   AU        0.140816    0.460268    0.228570     0.007504
PT743   PT        0.142204    0.498953    0.269904     0.004505
PT744   PT        0.176766    0.462951    0.266905     0.004505
PT745   PT        0.179555    0.502444    0.229079     0.004505
AU746   AU        0.211666    0.461836    0.227778     0.007504
AU747   AU        0.212817    0.501569    0.268203     0.007504
PT748   PT        0.250099    0.462732    0.267073     0.004505
PT749   PT        0.248106    0.500022    0.228565     0.004505
AU750   AU        0.284649    0.463578    0.227843     0.007504
PT751   PT        0.285646    0.502340    0.267230     0.004505
PT752   PT        0.321480    0.463946    0.265089     0.004505
PT753   PT        0.320107    0.502293    0.227950     0.004505
AU754   AU        0.355696    0.459836    0.226661     0.007504
AU755   AU        0.354734    0.500161    0.266353     0.007504
AU756   AU        0.391561    0.459781    0.266295     0.007504
AU757   AU        0.392476    0.500871    0.227365     0.007504
AU758   AU        0.427850    0.462527    0.227932     0.007504
AU759   AU        0.428039    0.498690    0.266961     0.007504
AU760   AU        0.463870    0.462378    0.269471     0.007504
PT761   PT        0.461400    0.499046    0.227937     0.004505
AU762   AU        0.499413    0.464823    0.228366     0.007504
PT763   PT        0.498264    0.499702    0.269930     0.004505
AU764   AU        0.533841    0.462194    0.266355     0.007504
AU765   AU        0.535959    0.500656    0.226995     0.007504
PT766   PT        0.570038    0.461397    0.226009     0.004505
AU767   AU        0.567892    0.503860    0.266162     0.007504
AU768   AU        0.605290    0.457544    0.264187     0.007504
AU769   AU        0.605930    0.500507    0.227527     0.007504
PT770   PT        0.643649    0.463725    0.227442     0.004505
AU771   AU        0.643013    0.505197    0.265792     0.007504
AU772   AU        0.678699    0.464850    0.265193     0.007504
AU773   AU        0.678652    0.501441    0.224745     0.007504
AU774   AU        0.712740    0.461218    0.226805     0.007504
PT775   PT        0.713302    0.502374    0.266310     0.004505
AU776   AU        0.747549    0.461825    0.266562     0.007504
AU777   AU        0.747417    0.500003    0.228931     0.007504
PT778   PT        0.780209    0.462455    0.230670     0.004505
PT779   PT        0.782756    0.501534    0.267825     0.004505
PT780   PT        0.814137    0.461707    0.267925     0.004505
PT781   PT        0.037632    0.537886    0.267585     0.004505
PT782   PT        0.075111    0.537220    0.232400     0.004505
PT783   PT        0.071186    0.575552    0.267455     0.004505
PT784   PT        0.107772    0.539149    0.270568     0.004505
PT785   PT        0.108025    0.577083    0.231371     0.004505
PT786   PT        0.142494    0.538671    0.227387     0.004505
AU787   AU        0.142464    0.577489    0.266158     0.007504
PT788   PT        0.175525    0.537490    0.268762     0.004505
PT789   PT        0.177947    0.577637    0.227875     0.004505
PT790   PT        0.212734    0.539901    0.227786     0.004505
PT791   PT        0.215435    0.579772    0.267851     0.004505
AU792   AU        0.248184    0.539488    0.266008     0.007504
PT793   PT        0.247992    0.578327    0.227110     0.004505
PT794   PT        0.283854    0.540236    0.228644     0.004505
PT795   PT        0.283655    0.575848    0.269342     0.004505
PT796   PT        0.321822    0.539515    0.266434     0.004505
AU797   AU        0.319093    0.577610    0.228733     0.007504
AU798   AU        0.357099    0.541742    0.229744     0.007504
AU799   AU        0.356589    0.578031    0.265897     0.007504
AU800   AU        0.391265    0.540135    0.268784     0.007504
AU801   AU        0.392172    0.579583    0.228702     0.007504
PT802   PT        0.428169    0.538600    0.230367     0.004505
AU803   AU        0.427794    0.578056    0.266556     0.007504
PT804   PT        0.461451    0.539124    0.264567     0.004505
AU805   AU        0.463644    0.577752    0.229876     0.007504
PT806   PT        0.497065    0.540365    0.227181     0.004505
AU807   AU        0.499382    0.578081    0.267512     0.007504
PT808   PT        0.532909    0.542293    0.266669     0.004505
PT809   PT        0.538665    0.580813    0.227450     0.004505
AU810   AU        0.572442    0.539342    0.225147     0.007504
AU811   AU        0.570688    0.575938    0.265959     0.007504
PT812   PT        0.606527    0.540751    0.265426     0.004505
PT813   PT        0.606821    0.580337    0.226446     0.004505
PT814   PT        0.642643    0.538614    0.225051     0.004505
PT815   PT        0.641290    0.577151    0.264179     0.004505
PT816   PT        0.677615    0.541862    0.266375     0.004505
PT817   PT        0.678699    0.579464    0.227583     0.004505
PT818   PT        0.713565    0.540279    0.228142     0.004505
AU819   AU        0.714057    0.580466    0.264652     0.007504
PT820   PT        0.748949    0.541220    0.265762     0.004505
PT821   PT        0.747735    0.579395    0.227595     0.004505
PT822   PT        0.782025    0.538376    0.229101     0.004505
AU823   AU        0.782478    0.578336    0.267308     0.007504
PT824   PT        0.828401    0.583828    0.257841     0.004505
PT825   PT        0.073759    0.656980    0.268928     0.004505
AU826   AU        0.106982    0.615252    0.266811     0.007504
PT827   PT        0.109644    0.652758    0.230784     0.004505
AU828   AU        0.143052    0.616029    0.228758     0.007504
AU829   AU        0.141032    0.653104    0.268971     0.007504
PT830   PT        0.177934    0.617225    0.265138     0.004505
PT831   PT        0.178393    0.656122    0.228264     0.004505
AU832   AU        0.213617    0.616953    0.228170     0.007504
PT833   PT        0.213604    0.657265    0.267346     0.004505
AU834   AU        0.249555    0.616441    0.267554     0.007504
PT835   PT        0.250447    0.655144    0.229080     0.004505
AU836   AU        0.284614    0.616680    0.227837     0.007504
AU837   AU        0.284342    0.655224    0.268075     0.007504
AU838   AU        0.319983    0.615838    0.267334     0.007504
AU839   AU        0.321869    0.654452    0.227873     0.007504
AU840   AU        0.356083    0.616759    0.229287     0.007504
PT841   PT        0.357203    0.656082    0.268857     0.004505
AU842   AU        0.391163    0.618954    0.268001     0.007504
AU843   AU        0.391031    0.655924    0.227071     0.007504
AU844   AU        0.428045    0.618892    0.227786     0.007504
AU845   AU        0.427974    0.656646    0.266427     0.007504
PT846   PT        0.463502    0.616899    0.265767     0.004505
AU847   AU        0.464449    0.654979    0.228129     0.007504
AU848   AU        0.500487    0.620055    0.226336     0.007504
PT849   PT        0.498872    0.655093    0.268667     0.004505
AU850   AU        0.532898    0.617264    0.267646     0.007504
PT851   PT        0.536555    0.656458    0.225461     0.004505
AU852   AU        0.571631    0.619284    0.225044     0.007504
PT853   PT        0.574124    0.656535    0.265271     0.004505
AU854   AU        0.607068    0.615942    0.265479     0.007504
AU855   AU        0.608763    0.658458    0.228240     0.007504
AU856   AU        0.643854    0.616309    0.225469     0.007504
PT857   PT        0.642432    0.654326    0.265826     0.004505
AU858   AU        0.678549    0.619209    0.264237     0.007504
PT859   PT        0.677271    0.656647    0.227713     0.004505
PT860   PT        0.713130    0.619318    0.228377     0.004505
AU861   AU        0.713068    0.655717    0.266260     0.007504
PT862   PT        0.748435    0.618851    0.265716     0.004505
AU863   AU        0.748349    0.656436    0.228948     0.007504
PT864   PT        0.783027    0.656966    0.265277     0.004505
PT865   PT        0.109637    0.693616    0.268771     0.004505
PT866   PT        0.143459    0.690714    0.231018     0.004505
PT867   PT        0.145027    0.730912    0.268123     0.004505
PT868   PT        0.177176    0.691673    0.267538     0.004505
AU869   AU        0.179466    0.730280    0.229517     0.007504
AU870   AU        0.214250    0.693057    0.230211     0.007504
PT871   PT        0.211856    0.730728    0.266207     0.004505
AU872   AU        0.250390    0.695582    0.266169     0.007504
AU873   AU        0.248516    0.730905    0.227834     0.007504
PT874   PT        0.286274    0.694146    0.225879     0.004505
AU875   AU        0.284267    0.732139    0.265819     0.007504
AU876   AU        0.318560    0.696039    0.268355     0.007504
AU877   AU        0.319995    0.731291    0.227409     0.007504
AU878   AU        0.355020    0.693891    0.230063     0.007504
PT879   PT        0.356560    0.731518    0.268171     0.004505
AU880   AU        0.391235    0.694014    0.268042     0.007504
AU881   AU        0.392821    0.731746    0.226714     0.007504
PT882   PT        0.428159    0.695201    0.225787     0.004505
AU883   AU        0.427310    0.731045    0.264393     0.007504
AU884   AU        0.464068    0.693334    0.264769     0.007504
AU885   AU        0.463971    0.732958    0.228797     0.007504
AU886   AU        0.498896    0.692258    0.227494     0.007504
AU887   AU        0.498216    0.733038    0.267234     0.007504
PT888   PT        0.533612    0.693040    0.266025     0.004505
PT889   PT        0.536197    0.732172    0.226906     0.004505
AU890   AU        0.571737    0.693026    0.226612     0.007504
AU891   AU        0.568950    0.733315    0.263324     0.007504
PT892   PT        0.607148    0.694733    0.264795     0.004505
PT893   PT        0.606500    0.731144    0.227204     0.004505
PT894   PT        0.642814    0.695740    0.226932     0.004505
AU895   AU        0.642203    0.732807    0.267517     0.007504
PT896   PT        0.678043    0.694786    0.265566     0.004505
PT897   PT        0.677803    0.730900    0.228368     0.004505
AU898   AU        0.712253    0.693986    0.228824     0.007504
AU899   AU        0.712248    0.731848    0.265429     0.007504
PT900   PT        0.747853    0.693533    0.266799     0.004505
PT901   PT        0.179703    0.769838    0.267263     0.004505
PT902   PT        0.215627    0.769560    0.229775     0.004505
PT903   PT        0.213889    0.806043    0.268236     0.004505
AU904   AU        0.248546    0.769426    0.268208     0.007504
PT905   PT        0.249171    0.806102    0.230212     0.004505
AU906   AU        0.285087    0.771228    0.227639     0.007504
AU907   AU        0.285122    0.804380    0.268190     0.007504
PT908   PT        0.321857    0.769992    0.265516     0.004505
AU909   AU        0.322038    0.807896    0.227726     0.007504
PT910   PT        0.355704    0.769716    0.229144     0.004505
PT911   PT        0.357096    0.809309    0.265470     0.004505
PT912   PT        0.390790    0.770455    0.264968     0.004505
PT913   PT        0.391863    0.807930    0.228570     0.004505
AU914   AU        0.427673    0.773247    0.229973     0.007504
AU915   AU        0.427298    0.807880    0.266426     0.007504
PT916   PT        0.464464    0.772637    0.266540     0.004505
PT917   PT        0.462951    0.809181    0.227907     0.004505
AU918   AU        0.497007    0.769140    0.227395     0.007504
PT919   PT        0.497334    0.807893    0.266191     0.004505
AU920   AU        0.534450    0.769434    0.265106     0.007504
AU921   AU        0.534394    0.806361    0.228776     0.007504
PT922   PT        0.569508    0.770783    0.229217     0.004505
PT923   PT        0.569894    0.808236    0.266498     0.004505
AU924   AU        0.604698    0.770526    0.267280     0.007504
AU925   AU        0.605646    0.808135    0.229467     0.007504
AU926   AU        0.640736    0.769400    0.228923     0.007504
PT927   PT        0.640408    0.807920    0.268352     0.004505
PT928   PT        0.677294    0.770472    0.267584     0.004505
PT929   PT        0.251200    0.844563    0.269652     0.004505
PT930   PT        0.321036    0.844291    0.265998     0.004505
PT931   PT        0.358301    0.845827    0.229312     0.004505
PT932   PT        0.355368    0.882854    0.266122     0.004505
PT933   PT        0.393877    0.846367    0.267379     0.004505
PT934   PT        0.426464    0.845784    0.228783     0.004505
PT935   PT        0.428888    0.883463    0.267539     0.004505
PT936   PT        0.463423    0.846217    0.265904     0.004505
PT937   PT        0.498624    0.844586    0.228248     0.004505
AU938   AU        0.498993    0.884083    0.267221     0.007504
PT939   PT        0.534228    0.845051    0.266133     0.004505
AU940   AU        0.604659    0.845060    0.267466     0.007504
PT941   PT        0.284967    0.041961    0.344457     0.004505
PT942   PT        0.320084    0.041043    0.305254     0.004505
PT943   PT        0.355757    0.042014    0.341700     0.004505
PT944   PT        0.391341    0.042479    0.304971     0.004505
PT945   PT        0.428084    0.040759    0.344835     0.004505
PT946   PT        0.463896    0.042321    0.305294     0.004505
PT947   PT        0.499874    0.039615    0.343967     0.004505
PT948   PT        0.535274    0.042320    0.304470     0.004505
PT949   PT        0.571830    0.040341    0.344016     0.004505
PT950   PT        0.180519    0.116715    0.304806     0.004505
AU951   AU        0.214387    0.117050    0.346762     0.007504
PT952   PT        0.250764    0.078907    0.345203     0.004505
AU953   AU        0.249704    0.116340    0.306102     0.007504
AU954   AU        0.284983    0.078460    0.304750     0.007504
PT955   PT        0.284243    0.114988    0.344842     0.004505
PT956   PT        0.319678    0.078100    0.344343     0.004505
PT957   PT        0.320681    0.115366    0.306036     0.004505
PT958   PT        0.356429    0.077592    0.305670     0.004505
AU959   AU        0.358062    0.113982    0.343040     0.007504
PT960   PT        0.391754    0.077188    0.345048     0.004505
AU961   AU        0.393631    0.115377    0.306566     0.007504
PT962   PT        0.427484    0.078096    0.305149     0.004505
PT963   PT        0.427658    0.115895    0.346283     0.004505
PT964   PT        0.463644    0.076326    0.345862     0.004505
AU965   AU        0.463957    0.114274    0.307807     0.007504
AU966   AU        0.502113    0.077366    0.307535     0.007504
PT967   PT        0.501354    0.113125    0.346339     0.004505
PT968   PT        0.537957    0.077312    0.343587     0.004505
PT969   PT        0.534707    0.115490    0.304493     0.004505
PT970   PT        0.573553    0.079422    0.306022     0.004505
AU971   AU        0.572116    0.116153    0.344211     0.007504
PT972   PT        0.607089    0.076801    0.344073     0.004505
PT973   PT        0.607364    0.116730    0.303395     0.004505
PT974   PT        0.641742    0.116749    0.343769     0.004505
PT975   PT        0.677835    0.118056    0.303679     0.004505
PT976   PT        0.108101    0.192720    0.306980     0.004505
AU977   AU        0.145404    0.154840    0.307146     0.007504
PT978   PT        0.143736    0.192651    0.348576     0.004505
AU979   AU        0.179509    0.155305    0.346822     0.007504
AU980   AU        0.179361    0.192717    0.305953     0.007504
AU981   AU        0.213613    0.154073    0.306562     0.007504
AU982   AU        0.212492    0.191564    0.344638     0.007504
AU983   AU        0.247308    0.153869    0.345630     0.007504
AU984   AU        0.246996    0.193574    0.305284     0.007504
PT985   PT        0.285887    0.153219    0.304578     0.004505
AU986   AU        0.285905    0.192076    0.344104     0.007504
PT987   PT        0.320205    0.154760    0.343700     0.004505
PT988   PT        0.320702    0.191699    0.306379     0.004505
AU989   AU        0.357035    0.154466    0.305025     0.007504
PT990   PT        0.358147    0.191503    0.341745     0.004505
AU991   AU        0.391384    0.151913    0.342509     0.007504
AU992   AU        0.392667    0.190744    0.305578     0.007504
AU993   AU        0.428331    0.153893    0.306235     0.007504
PT994   PT        0.430028    0.189231    0.345025     0.004505
AU995   AU        0.464767    0.151146    0.343594     0.007504
AU996   AU        0.465915    0.189973    0.307291     0.007504
PT997   PT        0.501378    0.152904    0.307302     0.004505
PT998   PT        0.501395    0.192471    0.344414     0.004505
PT999   PT        0.536410    0.151389    0.342985     0.004505
AU1000   AU        0.535510    0.192005    0.305755     0.007504
PT1001   PT        0.569690    0.153048    0.304436     0.004505
PT1002   PT        0.571555    0.189530    0.344582     0.004505
PT1003   PT        0.606804    0.153923    0.343330     0.004505
AU1004   AU        0.607926    0.191789    0.304660     0.007504
AU1005   AU        0.643550    0.155046    0.303942     0.007504
PT1006   PT        0.643089    0.191860    0.347516     0.004505
PT1007   PT        0.678266    0.154029    0.344698     0.004505
PT1008   PT        0.677903    0.191901    0.308205     0.004505
AU1009   AU        0.712331    0.156170    0.305347     0.007504
PT1010   PT        0.713968    0.192151    0.345618     0.004505
PT1011   PT        0.746860    0.190432    0.303549     0.004505
PT1012   PT        0.075144    0.268571    0.345624     0.004505
PT1013   PT        0.107322    0.231852    0.348390     0.004505
PT1014   PT        0.107557    0.271779    0.306109     0.004505
PT1015   PT        0.142531    0.230665    0.307800     0.004505
AU1016   AU        0.142613    0.270014    0.346310     0.007504
AU1017   AU        0.178348    0.231042    0.343716     0.007504
PT1018   PT        0.176709    0.268290    0.306495     0.004505
AU1019   AU        0.212949    0.231580    0.305622     0.007504
AU1020   AU        0.213943    0.269266    0.344286     0.007504
AU1021   AU        0.247373    0.229850    0.342704     0.007504
AU1022   AU        0.250079    0.267482    0.305536     0.007504
PT1023   PT        0.284639    0.230244    0.306057     0.004505
AU1024   AU        0.284304    0.268370    0.342517     0.007504
AU1025   AU        0.320836    0.231262    0.345049     0.007504
AU1026   AU        0.321586    0.265656    0.307407     0.007504
AU1027   AU        0.357809    0.227757    0.305392     0.007504
AU1028   AU        0.357215    0.267718    0.343832     0.007504
AU1029   AU        0.393964    0.228650    0.344868     0.007504
AU1030   AU        0.391873    0.266357    0.307151     0.007504
AU1031   AU        0.429698    0.231055    0.307193     0.007504
AU1032   AU        0.427164    0.269054    0.344111     0.007504
AU1033   AU        0.463681    0.230747    0.345872     0.007504
AU1034   AU        0.464361    0.267955    0.308369     0.007504
AU1035   AU        0.499803    0.230965    0.305557     0.007504
AU1036   AU        0.499510    0.268871    0.346648     0.007504
AU1037   AU        0.536761    0.231460    0.345705     0.007504
AU1038   AU        0.534770    0.268240    0.307062     0.007504
AU1039   AU        0.570480    0.228182    0.306379     0.007504
PT1040   PT        0.571531    0.266825    0.345144     0.004505
PT1041   PT        0.604753    0.228790    0.344594     0.004505
AU1042   AU        0.608338    0.266848    0.304670     0.007504
PT1043   PT        0.643274    0.231372    0.305339     0.004505
PT1044   PT        0.643741    0.267827    0.345340     0.004505
PT1045   PT        0.679515    0.228539    0.343607     0.004505
AU1046   AU        0.678872    0.267636    0.304667     0.007504
AU1047   AU        0.713991    0.229525    0.304607     0.007504
PT1048   PT        0.713705    0.266454    0.342525     0.004505
PT1049   PT        0.749023    0.229019    0.344860     0.004505
PT1050   PT        0.748753    0.270084    0.306158     0.004505
AU1051   AU        0.782448    0.271666    0.344902     0.007504
PT1052   PT        0.039997    0.308420    0.346758     0.004505
PT1053   PT        0.039270    0.345848    0.308236     0.004505
AU1054   AU        0.074050    0.309478    0.307568     0.007504
PT1055   PT        0.072131    0.346568    0.345771     0.004505
PT1056   PT        0.106976    0.308885    0.345286     0.004505
PT1057   PT        0.106745    0.345899    0.306043     0.004505
PT1058   PT        0.141233    0.308613    0.309585     0.004505
AU1059   AU        0.142850    0.346542    0.345072     0.007504
PT1060   PT        0.177832    0.307543    0.344382     0.004505
PT1061   PT        0.178052    0.344079    0.306804     0.004505
AU1062   AU        0.211661    0.305126    0.305494     0.007504
AU1063   AU        0.212812    0.344992    0.341826     0.007504
PT1064   PT        0.248273    0.305181    0.342083     0.004505
PT1065   PT        0.248487    0.346468    0.305625     0.004505
PT1066   PT        0.282505    0.310084    0.304662     0.004505
PT1067   PT        0.283110    0.345059    0.344005     0.004505
AU1068   AU        0.321662    0.306369    0.344368     0.007504
AU1069   AU        0.320400    0.345192    0.303183     0.007504
AU1070   AU        0.355739    0.304083    0.304649     0.007504
PT1071   PT        0.358702    0.343335    0.341894     0.004505
PT1072   PT        0.393700    0.305484    0.345744     0.004505
AU1073   AU        0.393760    0.347555    0.304370     0.007504
AU1074   AU        0.429185    0.305686    0.306129     0.007504
AU1075   AU        0.429100    0.346437    0.344492     0.007504
AU1076   AU        0.464772    0.305386    0.343542     0.007504
AU1077   AU        0.463289    0.346325    0.305771     0.007504
PT1078   PT        0.497932    0.306683    0.305392     0.004505
AU1079   AU        0.498882    0.345034    0.345898     0.007504
AU1080   AU        0.536456    0.305676    0.344098     0.007504
AU1081   AU        0.535235    0.343745    0.304148     0.007504
AU1082   AU        0.570933    0.306275    0.303577     0.007504
PT1083   PT        0.571223    0.344291    0.343149     0.004505
PT1084   PT        0.603980    0.307419    0.346599     0.004505
PT1085   PT        0.607828    0.345349    0.305283     0.004505
PT1086   PT        0.644935    0.305666    0.302593     0.004505
PT1087   PT        0.641967    0.343667    0.341929     0.004505
AU1088   AU        0.679757    0.306419    0.342328     0.007504
AU1089   AU        0.679079    0.342983    0.302826     0.007504
PT1090   PT        0.713864    0.304119    0.305081     0.004505
PT1091   PT        0.712318    0.346065    0.346448     0.004505
AU1092   AU        0.748146    0.307674    0.345373     0.007504
AU1093   AU        0.748565    0.346903    0.304115     0.007504
AU1094   AU        0.781954    0.309928    0.308250     0.007504
AU1095   AU        0.782251    0.346527    0.344398     0.007504
PT1096   PT        0.815033    0.309761    0.343558     0.004505
AU1097   AU        0.815598    0.348477    0.306221     0.007504
PT1098   PT        0.039045    0.383625    0.343881     0.004505
PT1099   PT        0.039177    0.421876    0.307053     0.004505
AU1100   AU        0.073180    0.383963    0.308721     0.007504
PT1101   PT        0.071053    0.423226    0.347771     0.004505
PT1102   PT        0.106294    0.384448    0.346588     0.004505
AU1103   AU        0.105716    0.423828    0.308918     0.007504
AU1104   AU        0.141866    0.383716    0.305844     0.007504
AU1105   AU        0.140688    0.424324    0.347331     0.007504
AU1106   AU        0.174885    0.385405    0.343915     0.007504
AU1107   AU        0.176822    0.422296    0.305193     0.007504
AU1108   AU        0.212627    0.384147    0.307351     0.007504
PT1109   PT        0.211101    0.424375    0.343244     0.004505
PT1110   PT        0.250984    0.385096    0.343924     0.004505
AU1111   AU        0.250326    0.423478    0.304494     0.007504
PT1112   PT        0.284030    0.381594    0.302393     0.004505
AU1113   AU        0.282579    0.427535    0.347088     0.007504
AU1114   AU        0.321972    0.380114    0.341562     0.007504
PT1115   PT        0.321925    0.422649    0.302208     0.004505
AU1116   AU        0.357670    0.383127    0.303534     0.007504
PT1117   PT        0.359935    0.420464    0.341057     0.004505
AU1118   AU        0.393094    0.382575    0.345544     0.007504
AU1119   AU        0.395038    0.424342    0.306213     0.007504
AU1120   AU        0.428836    0.385053    0.306154     0.007504
AU1121   AU        0.427333    0.423225    0.344964     0.007504
AU1122   AU        0.463941    0.385807    0.345345     0.007504
AU1123   AU        0.464513    0.422989    0.306012     0.007504
AU1124   AU        0.499981    0.384078    0.305133     0.007504
AU1125   AU        0.499069    0.421311    0.342992     0.007504
AU1126   AU        0.535628    0.381463    0.342356     0.007504
AU1127   AU        0.536662    0.421272    0.304737     0.007504
AU1128   AU        0.570304    0.383035    0.304153     0.007504
AU1129   AU        0.570833    0.417127    0.343200     0.007504
AU1130   AU        0.606330    0.381582    0.343502     0.007504
AU1131   AU        0.606154    0.418343    0.306252     0.007504
AU1132   AU        0.644078    0.383060    0.303631     0.007504
PT1133   PT        0.642595    0.416794    0.344491     0.004505
AU1134   AU        0.676666    0.382655    0.343034     0.007504
AU1135   AU        0.677286    0.424000    0.303444     0.007504
AU1136   AU        0.713107    0.383985    0.304712     0.007504
PT1137   PT        0.712260    0.425236    0.344039     0.004505
PT1138   PT        0.748270    0.382674    0.344197     0.004505
AU1139   AU        0.747356    0.424462    0.304846     0.007504
PT1140   PT        0.780347    0.385991    0.306570     0.004505
AU1141   AU        0.780935    0.423590    0.343422     0.007504
PT1142   PT        0.814845    0.385708    0.343572     0.004505
AU1143   AU        0.813489    0.423513    0.308036     0.007504
PT1144   PT        0.038567    0.461974    0.346445     0.004505
PT1145   PT        0.039429    0.499718    0.305458     0.004505
AU1146   AU        0.072093    0.461628    0.306785     0.007504
PT1147   PT        0.070883    0.499990    0.344533     0.004505
AU1148   AU        0.104290    0.460788    0.346327     0.007504
PT1149   PT        0.106638    0.501160    0.306941     0.004505
AU1150   AU        0.140708    0.461698    0.308104     0.007504
AU1151   AU        0.140630    0.500346    0.345106     0.007504
PT1152   PT        0.176892    0.462354    0.345329     0.004505
PT1153   PT        0.177859    0.501136    0.307963     0.004505
AU1154   AU        0.213814    0.460480    0.304309     0.007504
AU1155   AU        0.213437    0.501791    0.346419     0.007504
AU1156   AU        0.248472    0.462411    0.347713     0.007504
PT1157   PT        0.249408    0.501692    0.306035     0.004505
AU1158   AU        0.285102    0.462549    0.305056     0.007504
AU1159   AU        0.283992    0.501058    0.345888     0.007504
AU1160   AU        0.317780    0.462936    0.348456     0.007504
AU1161   AU        0.319598    0.502073    0.305489     0.007504
AU1162   AU        0.358957    0.462894    0.305055     0.007504
PT1163   PT        0.356619    0.501194    0.346895     0.004505
AU1164   AU        0.391901    0.463217    0.345043     0.007504
AU1165   AU        0.393589    0.501055    0.307668     0.007504
AU1166   AU        0.428560    0.460793    0.306709     0.007504
AU1167   AU        0.427549    0.501204    0.344841     0.007504
AU1168   AU        0.463422    0.460237    0.343166     0.007504
PT1169   PT        0.461001    0.502167    0.305644     0.004505
AU1170   AU        0.497797    0.462914    0.307934     0.007504
AU1171   AU        0.498014    0.502133    0.344213     0.007504
PT1172   PT        0.534201    0.463771    0.344830     0.004505
AU1173   AU        0.534946    0.500097    0.304021     0.007504
PT1174   PT        0.567374    0.462669    0.304367     0.004505
AU1175   AU        0.570075    0.504590    0.342647     0.007504
AU1176   AU        0.606872    0.470031    0.343752     0.007504
PT1177   PT        0.607605    0.506464    0.305649     0.004505
PT1178   PT        0.645834    0.470108    0.303890     0.004505
AU1179   AU        0.643683    0.505407    0.344497     0.007504
PT1180   PT        0.679872    0.465379    0.342734     0.004505
AU1181   AU        0.679140    0.504308    0.304479     0.007504
PT1182   PT        0.712185    0.463678    0.303684     0.004505
PT1183   PT        0.713426    0.503309    0.340682     0.004505
PT1184   PT        0.747290    0.463531    0.340989     0.004505
AU1185   AU        0.749187    0.503007    0.303292     0.007504
PT1186   PT        0.782178    0.462132    0.305569     0.004505
AU1187   AU        0.782215    0.501376    0.342159     0.007504
PT1188   PT        0.815738    0.462544    0.342381     0.004505
PT1189   PT        0.816185    0.500478    0.305121     0.004505
PT1190   PT        0.038276    0.538055    0.344710     0.004505
PT1191   PT        0.037851    0.576643    0.304918     0.004505
PT1192   PT        0.072648    0.540501    0.306015     0.004505
PT1193   PT        0.071614    0.578466    0.343786     0.004505
AU1194   AU        0.105057    0.538755    0.345264     0.007504
PT1195   PT        0.106982    0.577775    0.306131     0.004505
PT1196   PT        0.140998    0.540029    0.308935     0.004505
AU1197   AU        0.140585    0.577210    0.346905     0.007504
PT1198   PT        0.176284    0.538784    0.348120     0.004505
AU1199   AU        0.174355    0.576925    0.307349     0.007504
AU1200   AU        0.212741    0.540733    0.303730     0.007504
PT1201   PT        0.212155    0.578592    0.344744     0.004505
AU1202   AU        0.248162    0.540615    0.344192     0.007504
PT1203   PT        0.248823    0.579344    0.306243     0.004505
AU1204   AU        0.283346    0.539144    0.308307     0.007504
AU1205   AU        0.283688    0.577703    0.345158     0.007504
AU1206   AU        0.319718    0.539972    0.345818     0.007504
AU1207   AU        0.319961    0.577953    0.305248     0.007504
AU1208   AU        0.356244    0.537624    0.306585     0.007504
AU1209   AU        0.357054    0.575869    0.345256     0.007504
AU1210   AU        0.392106    0.538635    0.345847     0.007504
AU1211   AU        0.391321    0.577763    0.305935     0.007504
AU1212   AU        0.428426    0.541064    0.305397     0.007504
AU1213   AU        0.427701    0.577996    0.342591     0.007504
PT1214   PT        0.463031    0.538520    0.342841     0.004505
AU1215   AU        0.463114    0.580955    0.305447     0.007504
AU1216   AU        0.497736    0.541461    0.307191     0.007504
AU1217   AU        0.500343    0.580701    0.346280     0.007504
AU1218   AU        0.534201    0.539693    0.345508     0.007504
AU1219   AU        0.534620    0.578098    0.304223     0.007504
AU1220   AU        0.569504    0.539806    0.305227     0.007504
PT1221   PT        0.572094    0.578418    0.345460     0.004505
AU1222   AU        0.605470    0.542401    0.341933     0.007504
PT1223   PT        0.604040    0.580562    0.303938     0.004505
PT1224   PT        0.643600    0.542798    0.305871     0.004505
AU1225   AU        0.643782    0.579674    0.344010     0.007504
PT1226   PT        0.678949    0.540428    0.343731     0.004505
PT1227   PT        0.680438    0.580995    0.304578     0.004505
AU1228   AU        0.715078    0.541694    0.302743     0.007504
PT1229   PT        0.715358    0.579838    0.342837     0.004505
PT1230   PT        0.749684    0.542331    0.341890     0.004505
AU1231   AU        0.749431    0.579203    0.304573     0.007504
AU1232   AU        0.782969    0.539929    0.304536     0.007504
AU1233   AU        0.784231    0.581025    0.341583     0.007504
PT1234   PT        0.815732    0.541095    0.342845     0.004505
PT1235   PT        0.817147    0.578111    0.306173     0.004505
AU1236   AU        0.037047    0.616075    0.344847     0.007504
AU1237   AU        0.072129    0.615386    0.304983     0.007504
PT1238   PT        0.072860    0.655039    0.346576     0.004505
PT1239   PT        0.105257    0.617298    0.344143     0.004505
PT1240   PT        0.107347    0.653612    0.307143     0.004505
PT1241   PT        0.140579    0.617340    0.308223     0.004505
AU1242   AU        0.143203    0.655787    0.346578     0.007504
PT1243   PT        0.176158    0.616435    0.346797     0.004505
AU1244   AU        0.175465    0.655934    0.306580     0.007504
AU1245   AU        0.214509    0.618146    0.303532     0.007504
AU1246   AU        0.210507    0.654938    0.345806     0.007504
AU1247   AU        0.249133    0.616255    0.345445     0.007504
AU1248   AU        0.248587    0.656137    0.304250     0.007504
AU1249   AU        0.284523    0.617922    0.306152     0.007504
AU1250   AU        0.284612    0.656358    0.343280     0.007504
AU1251   AU        0.318361    0.618651    0.344744     0.007504
AU1252   AU        0.320977    0.655362    0.305066     0.007504
AU1253   AU        0.357628    0.616448    0.305531     0.007504
PT1254   PT        0.354545    0.656146    0.345605     0.004505
AU1255   AU        0.392913    0.617095    0.344751     0.007504
AU1256   AU        0.391411    0.655063    0.306155     0.007504
AU1257   AU        0.430002    0.619911    0.303798     0.007504
PT1258   PT        0.427513    0.656280    0.343499     0.004505
AU1259   AU        0.462877    0.617348    0.342804     0.007504
AU1260   AU        0.462718    0.656490    0.303570     0.007504
AU1261   AU        0.497737    0.615257    0.305625     0.007504
AU1262   AU        0.497636    0.656606    0.344592     0.007504
AU1263   AU        0.534409    0.619298    0.345265     0.007504
PT1264   PT        0.535252    0.657374    0.306061     0.004505
AU1265   AU        0.569014    0.616141    0.303842     0.007504
AU1266   AU        0.570427    0.657383    0.344005     0.007504
PT1267   PT        0.607256    0.618250    0.344936     0.004505
AU1268   AU        0.607647    0.655021    0.302713     0.007504
PT1269   PT        0.643818    0.618194    0.302546     0.004505
PT1270   PT        0.643430    0.656376    0.343180     0.004505
PT1271   PT        0.679615    0.619748    0.342112     0.004505
PT1272   PT        0.678421    0.656584    0.303648     0.004505
AU1273   AU        0.714546    0.619490    0.304946     0.007504
AU1274   AU        0.714782    0.657042    0.343808     0.007504
PT1275   PT        0.748493    0.618963    0.342463     0.004505
PT1276   PT        0.748345    0.656133    0.303600     0.004505
AU1277   AU        0.783589    0.616611    0.303965     0.007504
PT1278   PT        0.783728    0.656197    0.345164     0.004505
PT1279   PT        0.818553    0.617196    0.340609     0.004505
PT1280   PT        0.107717    0.692226    0.345910     0.004505
PT1281   PT        0.108635    0.731753    0.304514     0.004505
PT1282   PT        0.142333    0.692712    0.305989     0.004505
PT1283   PT        0.142822    0.731867    0.345724     0.004505
AU1284   AU        0.177435    0.694605    0.345992     0.007504
AU1285   AU        0.177907    0.730858    0.305852     0.007504
PT1286   PT        0.212141    0.693544    0.308514     0.004505
AU1287   AU        0.213878    0.732627    0.346111     0.007504
PT1288   PT        0.250228    0.696459    0.344092     0.004505
PT1289   PT        0.247501    0.733065    0.305301     0.004505
AU1290   AU        0.284476    0.695914    0.304524     0.007504
PT1291   PT        0.285173    0.732403    0.345045     0.004505
AU1292   AU        0.320901    0.694726    0.344356     0.007504
PT1293   PT        0.321119    0.734556    0.306473     0.004505
AU1294   AU        0.354867    0.694556    0.307013     0.007504
PT1295   PT        0.355668    0.734415    0.342915     0.004505
AU1296   AU        0.393002    0.695179    0.344056     0.007504
AU1297   AU        0.391646    0.731853    0.305002     0.007504
AU1298   AU        0.429000    0.695141    0.305614     0.007504
PT1299   PT        0.426602    0.735822    0.343921     0.004505
AU1300   AU        0.464790    0.694476    0.341473     0.007504
AU1301   AU        0.463513    0.733394    0.306220     0.007504
PT1302   PT        0.500382    0.692970    0.303733     0.004505
AU1303   AU        0.499193    0.733172    0.342785     0.007504
AU1304   AU        0.536216    0.696097    0.341998     0.007504
PT1305   PT        0.535589    0.733878    0.306469     0.004505
PT1306   PT        0.570394    0.696771    0.304699     0.004505
PT1307   PT        0.571051    0.734442    0.343400     0.004505
PT1308   PT        0.606150    0.694092    0.341361     0.004505
PT1309   PT        0.604831    0.731794    0.304228     0.004505
AU1310   AU        0.642453    0.692773    0.301713     0.007504
AU1311   AU        0.640076    0.735051    0.343922     0.007504
AU1312   AU        0.679056    0.694603    0.343304     0.007504
PT1313   PT        0.678352    0.732050    0.304242     0.004505
AU1314   AU        0.713760    0.693869    0.304618     0.007504
PT1315   PT        0.713809    0.732262    0.342398     0.004505
AU1316   AU        0.748566    0.694413    0.343352     0.007504
AU1317   AU        0.747912    0.732878    0.303644     0.007504
PT1318   PT        0.144843    0.768855    0.304047     0.004505
PT1319   PT        0.177955    0.770610    0.344438     0.004505
AU1320   AU        0.178258    0.806084    0.305408     0.007504
AU1321   AU        0.212858    0.769167    0.306627     0.007504
PT1322   PT        0.212647    0.808651    0.345316     0.004505
AU1323   AU        0.248978    0.771248    0.345979     0.007504
AU1324   AU        0.251156    0.806363    0.307353     0.007504
PT1325   PT        0.284730    0.768608    0.306075     0.004505
AU1326   AU        0.286370    0.808988    0.346257     0.007504
PT1327   PT        0.319186    0.771025    0.344136     0.004505
PT1328   PT        0.321553    0.807479    0.304181     0.004505
PT1329   PT        0.355850    0.769905    0.305035     0.004505
AU1330   AU        0.356249    0.808205    0.344392     0.007504
PT1331   PT        0.391603    0.772410    0.342253     0.004505
AU1332   AU        0.392532    0.809089    0.304456     0.007504
AU1333   AU        0.428392    0.770770    0.303057     0.007504
PT1334   PT        0.428449    0.809982    0.343316     0.004505
AU1335   AU        0.463719    0.771965    0.344727     0.007504
PT1336   PT        0.462455    0.810087    0.303529     0.004505
AU1337   AU        0.497733    0.771910    0.305953     0.007504
PT1338   PT        0.500303    0.810210    0.343461     0.004505
AU1339   AU        0.535228    0.772254    0.343781     0.007504
PT1340   PT        0.535036    0.806912    0.303148     0.004505
PT1341   PT        0.570628    0.771392    0.304335     0.004505
AU1342   AU        0.569911    0.808791    0.342622     0.007504
AU1343   AU        0.605259    0.772346    0.343003     0.007504
AU1344   AU        0.605853    0.809011    0.305234     0.007504
PT1345   PT        0.641846    0.769024    0.306132     0.004505
PT1346   PT        0.642066    0.806310    0.344186     0.004505
PT1347   PT        0.677991    0.770291    0.343245     0.004505
AU1348   AU        0.677175    0.807117    0.305634     0.007504
PT1349   PT        0.711726    0.768354    0.305042     0.004505
PT1350   PT        0.251048    0.844148    0.345105     0.004505
PT1351   PT        0.284819    0.844477    0.307144     0.004505
PT1352   PT        0.282677    0.882274    0.342936     0.004505
PT1353   PT        0.320415    0.846569    0.342922     0.004505
PT1354   PT        0.320269    0.881567    0.304777     0.004505
AU1355   AU        0.354507    0.847183    0.306282     0.007504
PT1356   PT        0.354577    0.883353    0.344068     0.004505
AU1357   AU        0.390633    0.846587    0.343408     0.007504
AU1358   AU        0.389403    0.883136    0.303658     0.007504
PT1359   PT        0.427502    0.847574    0.304157     0.004505
PT1360   PT        0.427691    0.883982    0.344720     0.004505
PT1361   PT        0.462797    0.847037    0.343208     0.004505
PT1362   PT        0.465057    0.883370    0.304529     0.004505
PT1363   PT        0.499012    0.846832    0.303457     0.004505
PT1364   PT        0.498626    0.882537    0.343814     0.004505
PT1365   PT        0.534583    0.846118    0.341676     0.004505
AU1366   AU        0.534317    0.883067    0.306211     0.007504
AU1367   AU        0.570527    0.847491    0.305881     0.007504
AU1368   AU        0.571195    0.883435    0.344613     0.007504
AU1369   AU        0.605656    0.844793    0.344024     0.007504
AU1370   AU        0.249413    0.041477    0.383196     0.007504
PT1371   PT        0.283813    0.041139    0.420650     0.004505
PT1372   PT        0.320088    0.041564    0.382413     0.004505
PT1373   PT        0.357651    0.039500    0.420148     0.004505
AU1374   AU        0.393693    0.000769    0.423999     0.007504
PT1375   PT        0.393215    0.039742    0.384724     0.004505
PT1376   PT        0.429089    0.002587    0.385749     0.004505
PT1377   PT        0.428503    0.040525    0.422083     0.004505
PT1378   PT        0.462985    0.000857    0.423542     0.004505
PT1379   PT        0.463996    0.039343    0.387023     0.004505
PT1380   PT        0.498202    0.038787    0.423756     0.004505
PT1381   PT        0.535041    0.041091    0.384209     0.004505
AU1382   AU        0.573023    0.040371    0.420943     0.007504
PT1383   PT        0.608262    0.040634    0.383256     0.004505
PT1384   PT        0.142231    0.115804    0.424460     0.004505
AU1385   AU        0.178264    0.078601    0.424443     0.007504
AU1386   AU        0.177658    0.116729    0.383965     0.007504
PT1387   PT        0.213501    0.079068    0.383237     0.004505
PT1388   PT        0.213243    0.115874    0.422250     0.004505
PT1389   PT        0.248551    0.078053    0.421101     0.004505
AU1390   AU        0.249121    0.114403    0.385597     0.007504
AU1391   AU        0.284746    0.077312    0.384578     0.007504
AU1392   AU        0.286184    0.114551    0.421262     0.007504
AU1393   AU        0.322078    0.077400    0.420438     0.007504
AU1394   AU        0.321645    0.114071    0.381082     0.007504
AU1395   AU        0.356389    0.078251    0.381259     0.007504
AU1396   AU        0.356713    0.114991    0.420815     0.007504
AU1397   AU        0.392547    0.076806    0.421071     0.007504
AU1398   AU        0.392634    0.112873    0.384382     0.007504
AU1399   AU        0.428794    0.076686    0.382923     0.007504
AU1400   AU        0.428926    0.113984    0.421047     0.007504
PT1401   PT        0.464282    0.078683    0.420499     0.004505
AU1402   AU        0.464767    0.114929    0.382337     0.007504
PT1403   PT        0.499468    0.076815    0.383914     0.004505
PT1404   PT        0.498994    0.114665    0.419814     0.004505
PT1405   PT        0.536658    0.078462    0.421587     0.004505
AU1406   AU        0.536291    0.114963    0.381868     0.007504
PT1407   PT        0.572039    0.077962    0.382900     0.004505
PT1408   PT        0.571430    0.115169    0.421129     0.004505
AU1409   AU        0.606511    0.077783    0.420757     0.007504
PT1410   PT        0.606475    0.114804    0.381829     0.004505
PT1411   PT        0.642180    0.077661    0.384423     0.004505
AU1412   AU        0.643730    0.116252    0.422278     0.007504
AU1413   AU        0.678088    0.078594    0.422381     0.007504
PT1414   PT        0.677141    0.116135    0.383647     0.004505
PT1415   PT        0.712604    0.115959    0.420447     0.004505
AU1416   AU        0.073630    0.195895    0.423446     0.007504
AU1417   AU        0.107588    0.154234    0.425336     0.007504
PT1418   PT        0.107281    0.192803    0.387987     0.004505
PT1419   PT        0.142118    0.154439    0.387391     0.004505
AU1420   AU        0.143557    0.191783    0.421380     0.007504
AU1421   AU        0.177452    0.154220    0.422296     0.007504
AU1422   AU        0.179387    0.190646    0.383525     0.007504
PT1423   PT        0.213481    0.153192    0.384015     0.004505
PT1424   PT        0.212328    0.187993    0.422781     0.004505
AU1425   AU        0.248444    0.153426    0.421994     0.007504
AU1426   AU        0.249037    0.190634    0.384143     0.007504
AU1427   AU        0.285991    0.153280    0.380367     0.007504
AU1428   AU        0.284949    0.190096    0.423678     0.007504
AU1429   AU        0.322664    0.152110    0.420236     0.007504
AU1430   AU        0.319214    0.190960    0.384962     0.007504
PT1431   PT        0.355305    0.154072    0.381353     0.004505
PT1432   PT        0.357108    0.189879    0.421542     0.004505
PT1433   PT        0.390513    0.152660    0.420191     0.004505
AU1434   AU        0.392788    0.191715    0.381106     0.007504
AU1435   AU        0.427005    0.152259    0.383348     0.007504
AU1436   AU        0.429302    0.190220    0.421284     0.007504
AU1437   AU        0.463078    0.150722    0.422251     0.007504
AU1438   AU        0.463743    0.190069    0.383235     0.007504
PT1439   PT        0.500409    0.151990    0.383608     0.004505
AU1440   AU        0.500405    0.190656    0.422708     0.007504
AU1441   AU        0.536060    0.152339    0.423437     0.007504
AU1442   AU        0.536589    0.190255    0.383246     0.007504
AU1443   AU        0.572169    0.152535    0.381386     0.007504
PT1444   PT        0.572328    0.189371    0.421575     0.004505
AU1445   AU        0.607042    0.151870    0.420202     0.007504
PT1446   PT        0.606721    0.190891    0.383449     0.004505
PT1447   PT        0.641341    0.152223    0.383422     0.004505
PT1448   PT        0.642309    0.191429    0.420588     0.004505
PT1449   PT        0.677428    0.154664    0.421096     0.004505
PT1450   PT        0.678145    0.190026    0.384020     0.004505
PT1451   PT        0.711364    0.153840    0.383707     0.004505
PT1452   PT        0.714204    0.192279    0.423717     0.004505
PT1453   PT        0.748527    0.151859    0.424455     0.004505
AU1454   AU        0.747919    0.191417    0.384769     0.007504
AU1455   AU        0.785944    0.154175    0.460295     0.007504
PT1456   PT        0.037353    0.270535    0.385044     0.004505
PT1457   PT        0.074047    0.233590    0.385826     0.004505
PT1458   PT        0.073282    0.270657    0.422915     0.004505
PT1459   PT        0.108518    0.231486    0.423266     0.004505
AU1460   AU        0.107971    0.269917    0.385040     0.007504
PT1461   PT        0.142535    0.230427    0.384303     0.004505
PT1462   PT        0.142543    0.268106    0.422715     0.004505
PT1463   PT        0.175689    0.230015    0.422508     0.004505
AU1464   AU        0.178110    0.269695    0.381861     0.007504
AU1465   AU        0.214552    0.228639    0.382030     0.007504
AU1466   AU        0.213260    0.267522    0.418822     0.007504
AU1467   AU        0.246910    0.231251    0.421018     0.007504
AU1468   AU        0.248884    0.269408    0.381998     0.007504
AU1469   AU        0.284412    0.231238    0.381463     0.007504
AU1470   AU        0.285434    0.270814    0.419704     0.007504
AU1471   AU        0.321211    0.228432    0.420989     0.007504
AU1472   AU        0.324049    0.266665    0.383498     0.007504
AU1473   AU        0.357821    0.227201    0.381441     0.007504
AU1474   AU        0.357561    0.270326    0.421704     0.007504
AU1475   AU        0.392949    0.227245    0.421899     0.007504
AU1476   AU        0.393428    0.266370    0.383437     0.007504
PT1477   PT        0.429702    0.229495    0.382835     0.004505
AU1478   AU        0.431469    0.268067    0.421679     0.007504
AU1479   AU        0.465177    0.228148    0.420498     0.007504
AU1480   AU        0.465948    0.267431    0.382998     0.007504
AU1481   AU        0.498865    0.228872    0.383137     0.007504
AU1482   AU        0.498493    0.268755    0.422510     0.007504
AU1483   AU        0.532638    0.227626    0.421537     0.007504
AU1484   AU        0.533753    0.267937    0.385055     0.007504
PT1485   PT        0.570692    0.229697    0.384801     0.004505
PT1486   PT        0.569758    0.268815    0.422881     0.004505
PT1487   PT        0.606272    0.231174    0.422150     0.004505
PT1488   PT        0.609439    0.267169    0.384475     0.004505
PT1489   PT        0.643987    0.228261    0.383237     0.004505
AU1490   AU        0.643095    0.265918    0.424007     0.007504
AU1491   AU        0.678355    0.228302    0.421415     0.007504
PT1492   PT        0.679664    0.267590    0.381801     0.004505
AU1493   AU        0.712163    0.229740    0.384067     0.007504
AU1494   AU        0.715481    0.267270    0.422039     0.007504
PT1495   PT        0.750504    0.230516    0.421693     0.004505
PT1496   PT        0.748112    0.268847    0.382835     0.004505
PT1497   PT        0.782590    0.235154    0.382381     0.004505
AU1498   AU        0.782349    0.270954    0.420139     0.007504
AU1499   AU        0.816558    0.272813    0.383581     0.007504
PT1500   PT        0.038702    0.305841    0.421447     0.004505
PT1501   PT        0.038727    0.345602    0.383409     0.004505
AU1502   AU        0.072758    0.307008    0.382169     0.007504
PT1503   PT        0.069979    0.344643    0.420770     0.004505
PT1504   PT        0.106057    0.308925    0.422742     0.004505
PT1505   PT        0.107101    0.347084    0.383483     0.004505
AU1506   AU        0.141620    0.308274    0.383741     0.007504
AU1507   AU        0.141885    0.346993    0.422655     0.007504
AU1508   AU        0.176914    0.307650    0.421355     0.007504
PT1509   PT        0.176740    0.347559    0.383087     0.004505
PT1510   PT        0.214029    0.306988    0.381005     0.004505
AU1511   AU        0.214765    0.347914    0.420082     0.007504
AU1512   AU        0.248450    0.306717    0.420920     0.007504
AU1513   AU        0.249482    0.345236    0.384011     0.007504
AU1514   AU        0.286333    0.306330    0.381639     0.007504
AU1515   AU        0.283511    0.347678    0.422328     0.007504
AU1516   AU        0.321277    0.307220    0.420649     0.007504
AU1517   AU        0.320308    0.346607    0.383307     0.007504
AU1518   AU        0.357768    0.308296    0.383572     0.007504
AU1519   AU        0.356716    0.345850    0.421537     0.007504
AU1520   AU        0.392835    0.308486    0.420780     0.007504
AU1521   AU        0.393957    0.345261    0.380262     0.007504
AU1522   AU        0.430209    0.307069    0.381413     0.007504
AU1523   AU        0.428376    0.346768    0.419837     0.007504
AU1524   AU        0.463986    0.308469    0.423678     0.007504
AU1525   AU        0.463891    0.344722    0.382925     0.007504
AU1526   AU        0.498398    0.306500    0.383289     0.007504
PT1527   PT        0.499109    0.346982    0.419981     0.004505
AU1528   AU        0.533208    0.308141    0.421621     0.007504
AU1529   AU        0.533223    0.344664    0.382175     0.007504
AU1530   AU        0.568800    0.307554    0.382877     0.007504
PT1531   PT        0.570325    0.343146    0.421323     0.004505
PT1532   PT        0.605908    0.305452    0.424392     0.004505
AU1533   AU        0.607065    0.344775    0.383342     0.007504
PT1534   PT        0.642328    0.308962    0.380131     0.004505
AU1535   AU        0.643635    0.344926    0.422488     0.007504
AU1536   AU        0.680229    0.304518    0.421022     0.007504
AU1537   AU        0.678080    0.346134    0.383394     0.007504
PT1538   PT        0.713737    0.306600    0.384265     0.004505
PT1539   PT        0.714074    0.345870    0.421810     0.004505
PT1540   PT        0.747526    0.306290    0.420678     0.004505
PT1541   PT        0.746760    0.343897    0.382725     0.004505
PT1542   PT        0.782108    0.308786    0.382527     0.004505
PT1543   PT        0.781274    0.344641    0.422548     0.004505
PT1544   PT        0.815783    0.310593    0.420272     0.004505
PT1545   PT        0.813830    0.346973    0.384136     0.004505
PT1546   PT        0.002354    0.425830    0.422435     0.004505
AU1547   AU        0.036988    0.386226    0.423632     0.007504
AU1548   AU        0.037911    0.422258    0.384021     0.007504
PT1549   PT        0.072220    0.384520    0.384322     0.004505
AU1550   AU        0.070002    0.424204    0.424263     0.007504
PT1551   PT        0.104199    0.386852    0.420511     0.004505
AU1552   AU        0.106228    0.424813    0.384333     0.007504
PT1553   PT        0.140210    0.387367    0.384715     0.004505
PT1554   PT        0.140471    0.426391    0.422698     0.004505
AU1555   AU        0.177867    0.387142    0.419957     0.007504
AU1556   AU        0.176369    0.424412    0.383663     0.007504
PT1557   PT        0.212172    0.385178    0.381502     0.004505
AU1558   AU        0.213988    0.421951    0.420764     0.007504
PT1559   PT        0.249142    0.385633    0.420590     0.004505
AU1560   AU        0.247137    0.422863    0.382914     0.007504
AU1561   AU        0.285434    0.384900    0.381991     0.007504
AU1562   AU        0.283620    0.423726    0.422445     0.007504
AU1563   AU        0.320942    0.386490    0.421284     0.007504
PT1564   PT        0.318626    0.425818    0.385995     0.004505
AU1565   AU        0.358804    0.382674    0.383989     0.007504
AU1566   AU        0.356544    0.423539    0.421128     0.007504
AU1567   AU        0.391320    0.384394    0.419889     0.007504
PT1568   PT        0.394619    0.424181    0.380539     0.004505
AU1569   AU        0.428068    0.384325    0.381468     0.007504
AU1570   AU        0.427349    0.425793    0.423070     0.007504
AU1571   AU        0.462989    0.385285    0.420879     0.007504
AU1572   AU        0.465671    0.423131    0.384562     0.007504
AU1573   AU        0.499261    0.384849    0.382022     0.007504
AU1574   AU        0.497423    0.423150    0.423363     0.007504
PT1575   PT        0.536411    0.384409    0.420591     0.004505
AU1576   AU        0.535894    0.423025    0.383995     0.007504
AU1577   AU        0.570603    0.381336    0.382935     0.007504
PT1578   PT        0.569711    0.425002    0.423133     0.004505
AU1579   AU        0.605921    0.382059    0.421402     0.007504
AU1580   AU        0.604859    0.417189    0.382339     0.007504
PT1581   PT        0.643013    0.380260    0.383230     0.004505
AU1582   AU        0.642177    0.417184    0.418620     0.007504
AU1583   AU        0.677870    0.382819    0.422037     0.007504
PT1584   PT        0.679619    0.420886    0.380629     0.004505
PT1585   PT        0.714025    0.385551    0.382011     0.004505
AU1586   AU        0.713912    0.425612    0.422400     0.007504
PT1587   PT        0.747543    0.384714    0.420656     0.004505
PT1588   PT        0.746654    0.422674    0.381805     0.004505
PT1589   PT        0.780590    0.384771    0.382014     0.004505
PT1590   PT        0.781116    0.424311    0.422843     0.004505
AU1591   AU        0.814455    0.386198    0.420105     0.007504
PT1592   PT        0.814369    0.424549    0.381755     0.004505
PT1593   PT        0.847130    0.425273    0.421489     0.004505
PT1594   PT        0.003677    0.462176    0.385552     0.004505
PT1595   PT        0.002944    0.499317    0.423355     0.004505
AU1596   AU        0.036207    0.461817    0.423863     0.007504
PT1597   PT        0.037105    0.500494    0.384562     0.004505
AU1598   AU        0.070544    0.462294    0.384980     0.007504
PT1599   PT        0.071199    0.500300    0.421623     0.004505
AU1600   AU        0.104490    0.461257    0.422854     0.007504
PT1601   PT        0.107697    0.499289    0.383665     0.004505
PT1602   PT        0.142347    0.460928    0.384781     0.004505
AU1603   AU        0.139440    0.503496    0.422825     0.007504
AU1604   AU        0.176939    0.463131    0.421848     0.007504
PT1605   PT        0.173791    0.503227    0.384857     0.004505
AU1606   AU        0.213173    0.460005    0.384876     0.007504
AU1607   AU        0.212255    0.501773    0.424029     0.007504
AU1608   AU        0.247019    0.462602    0.423063     0.007504
AU1609   AU        0.249922    0.501566    0.384449     0.007504
PT1610   PT        0.282933    0.463637    0.385911     0.004505
AU1611   AU        0.284652    0.501000    0.424328     0.007504
AU1612   AU        0.319080    0.462324    0.422217     0.007504
AU1613   AU        0.318182    0.500709    0.384130     0.007504
PT1614   PT        0.354366    0.463798    0.385017     0.004505
AU1615   AU        0.356480    0.498665    0.421460     0.007504
AU1616   AU        0.392313    0.462138    0.419369     0.007504
PT1617   PT        0.390222    0.499141    0.384959     0.004505
PT1618   PT        0.430283    0.460690    0.380623     0.004505
AU1619   AU        0.430329    0.502004    0.421623     0.007504
AU1620   AU        0.461834    0.463546    0.422387     0.007504
AU1621   AU        0.463301    0.501080    0.383145     0.007504
AU1622   AU        0.500220    0.460122    0.382873     0.007504
AU1623   AU        0.499406    0.500346    0.420886     0.007504
AU1624   AU        0.534172    0.461750    0.422959     0.007504
AU1625   AU        0.532318    0.501818    0.382180     0.007504
AU1626   AU        0.570191    0.467972    0.383770     0.007504
AU1627   AU        0.569723    0.501792    0.421892     0.007504
AU1628   AU        0.606658    0.464546    0.423499     0.007504
PT1629   PT        0.606465    0.505005    0.381269     0.004505
PT1630   PT        0.644251    0.469001    0.381199     0.004505
PT1631   PT        0.643094    0.505758    0.418050     0.004505
PT1632   PT        0.680569    0.463628    0.420018     0.004505
PT1633   PT        0.680749    0.504215    0.379866     0.004505
AU1634   AU        0.714188    0.464081    0.381798     0.007504
AU1635   AU        0.714244    0.503949    0.421575     0.007504
PT1636   PT        0.747786    0.463734    0.420520     0.004505
AU1637   AU        0.748731    0.502701    0.379725     0.007504
PT1638   PT        0.780284    0.460364    0.381894     0.004505
PT1639   PT        0.780786    0.502720    0.420273     0.004505
PT1640   PT        0.813460    0.462782    0.422611     0.004505
PT1641   PT        0.814172    0.499595    0.382001     0.004505
PT1642   PT        0.846172    0.462111    0.382071     0.004505
PT1643   PT        0.846880    0.499538    0.420853     0.004505
AU1644   AU        0.037480    0.538500    0.421770     0.007504
PT1645   PT        0.037879    0.578797    0.382650     0.004505
PT1646   PT        0.071244    0.539107    0.383003     0.004505
AU1647   AU        0.069312    0.581203    0.422945     0.007504
PT1648   PT        0.105385    0.539499    0.420431     0.004505
AU1649   AU        0.105854    0.578724    0.382174     0.007504
AU1650   AU        0.140182    0.539774    0.382400     0.007504
PT1651   PT        0.138945    0.578514    0.421496     0.004505
AU1652   AU        0.177115    0.540037    0.424792     0.007504
PT1653   PT        0.175915    0.577625    0.384643     0.004505
AU1654   AU        0.213093    0.539639    0.384861     0.007504
AU1655   AU        0.213945    0.578175    0.422281     0.007504
AU1656   AU        0.251070    0.539136    0.420711     0.007504
AU1657   AU        0.248121    0.578496    0.383074     0.007504
AU1658   AU        0.283702    0.540453    0.382960     0.007504
AU1659   AU        0.283441    0.578953    0.421980     0.007504
AU1660   AU        0.320051    0.539237    0.420394     0.007504
AU1661   AU        0.319516    0.580355    0.382849     0.007504
AU1662   AU        0.355011    0.539130    0.382810     0.007504
AU1663   AU        0.352149    0.580044    0.423097     0.007504
AU1664   AU        0.390632    0.537620    0.420715     0.007504
AU1665   AU        0.394116    0.576376    0.382842     0.007504
AU1666   AU        0.429758    0.541142    0.383532     0.007504
AU1667   AU        0.427574    0.576358    0.424263     0.007504
AU1668   AU        0.463353    0.539426    0.420154     0.007504
AU1669   AU        0.464098    0.579061    0.380402     0.007504
PT1670   PT        0.498419    0.540206    0.383041     0.004505
AU1671   AU        0.499331    0.579475    0.418420     0.007504
AU1672   AU        0.535705    0.538662    0.422546     0.007504
AU1673   AU        0.534236    0.576841    0.382793     0.007504
AU1674   AU        0.569448    0.540800    0.382487     0.007504
AU1675   AU        0.569071    0.578175    0.422545     0.007504
AU1676   AU        0.605879    0.540568    0.422533     0.007504
PT1677   PT        0.607428    0.579052    0.382671     0.004505
AU1678   AU        0.643914    0.541233    0.381587     0.007504
PT1679   PT        0.643815    0.579684    0.418444     0.004505
AU1680   AU        0.679898    0.542582    0.417895     0.007504
PT1681   PT        0.678908    0.580772    0.380761     0.004505
AU1682   AU        0.714130    0.541394    0.380278     0.007504
AU1683   AU        0.714278    0.579532    0.418965     0.007504
PT1684   PT        0.748332    0.540922    0.419708     0.004505
PT1685   PT        0.749132    0.579610    0.380402     0.004505
PT1686   PT        0.783498    0.541555    0.382548     0.004505
AU1687   AU        0.783678    0.579689    0.419246     0.007504
PT1688   PT        0.816546    0.540263    0.420570     0.004505
PT1689   PT        0.816530    0.579725    0.382046     0.004505
PT1690   PT        0.038017    0.618711    0.423697     0.004505
PT1691   PT        0.036836    0.654904    0.384344     0.004505
AU1692   AU        0.071060    0.616250    0.383043     0.007504
AU1693   AU        0.072336    0.655716    0.422656     0.007504
PT1694   PT        0.103556    0.617144    0.422777     0.004505
PT1695   PT        0.106683    0.653990    0.384307     0.004505
AU1696   AU        0.140238    0.617566    0.381109     0.007504
PT1697   PT        0.141515    0.655040    0.423559     0.004505
AU1698   AU        0.176881    0.615264    0.421935     0.007504
PT1699   PT        0.176211    0.656690    0.385966     0.004505
AU1700   AU        0.213017    0.617550    0.383895     0.007504
AU1701   AU        0.213940    0.654624    0.422051     0.007504
AU1702   AU        0.250523    0.617799    0.422755     0.007504
AU1703   AU        0.249321    0.656116    0.383560     0.007504
AU1704   AU        0.284707    0.617753    0.383997     0.007504
AU1705   AU        0.283674    0.655677    0.423258     0.007504
AU1706   AU        0.319549    0.620262    0.421601     0.007504
AU1707   AU        0.319597    0.656507    0.382179     0.007504
AU1708   AU        0.354138    0.616903    0.380281     0.007504
AU1709   AU        0.357739    0.654088    0.420128     0.007504
AU1710   AU        0.392238    0.615814    0.420631     0.007504
AU1711   AU        0.393845    0.654300    0.382973     0.007504
AU1712   AU        0.429045    0.616604    0.380838     0.007504
PT1713   PT        0.430788    0.656974    0.419075     0.004505
AU1714   AU        0.464450    0.616144    0.419370     0.007504
AU1715   AU        0.464796    0.655133    0.382758     0.007504
AU1716   AU        0.500858    0.619845    0.382209     0.007504
AU1717   AU        0.500254    0.656898    0.422973     0.007504
AU1718   AU        0.534228    0.618782    0.423565     0.007504
AU1719   AU        0.537188    0.656531    0.382145     0.007504
AU1720   AU        0.570302    0.617320    0.382459     0.007504
PT1721   PT        0.572880    0.656235    0.420815     0.004505
AU1722   AU        0.608469    0.619105    0.419395     0.007504
AU1723   AU        0.607005    0.655842    0.379213     0.007504
AU1724   AU        0.641463    0.619708    0.381382     0.007504
PT1725   PT        0.643801    0.656286    0.420705     0.004505
AU1726   AU        0.679515    0.619197    0.420388     0.007504
PT1727   PT        0.678936    0.659311    0.381458     0.004505
PT1728   PT        0.712139    0.619261    0.381413     0.004505
AU1729   AU        0.714858    0.657264    0.418118     0.007504
PT1730   PT        0.749131    0.619987    0.418785     0.004505
AU1731   AU        0.748468    0.656318    0.382002     0.007504
PT1732   PT        0.782862    0.617564    0.380177     0.004505
PT1733   PT        0.783628    0.656295    0.419585     0.004505
PT1734   PT        0.817225    0.617162    0.418178     0.004505
PT1735   PT        0.817597    0.653734    0.381094     0.004505
PT1736   PT        0.072735    0.691176    0.385133     0.004505
PT1737   PT        0.073006    0.730161    0.420683     0.004505
PT1738   PT        0.106183    0.691514    0.421433     0.004505
AU1739   AU        0.107891    0.732027    0.384416     0.007504
PT1740   PT        0.142328    0.693479    0.383525     0.004505
PT1741   PT        0.142143    0.731094    0.421479     0.004505
AU1742   AU        0.176572    0.694577    0.421236     0.007504
AU1743   AU        0.178105    0.733196    0.382478     0.007504
AU1744   AU        0.212856    0.693028    0.385972     0.007504
PT1745   PT        0.210950    0.731230    0.422577     0.004505
AU1746   AU        0.250275    0.695157    0.421591     0.007504
PT1747   PT        0.248044    0.733637    0.381902     0.004505
AU1748   AU        0.284909    0.695486    0.382176     0.007504
AU1749   AU        0.284922    0.732335    0.421235     0.007504
AU1750   AU        0.321778    0.694202    0.420816     0.007504
AU1751   AU        0.321773    0.733191    0.381939     0.007504
AU1752   AU        0.356866    0.693761    0.382725     0.007504
AU1753   AU        0.357933    0.733651    0.421691     0.007504
PT1754   PT        0.393128    0.692334    0.418381     0.004505
AU1755   AU        0.391122    0.732927    0.383149     0.007504
AU1756   AU        0.429828    0.695773    0.381503     0.007504
AU1757   AU        0.427636    0.732673    0.419297     0.007504
AU1758   AU        0.464092    0.696072    0.420099     0.007504
PT1759   PT        0.464383    0.732429    0.380160     0.004505
AU1760   AU        0.500122    0.694961    0.381563     0.007504
AU1761   AU        0.500484    0.733074    0.421493     0.007504
AU1762   AU        0.534698    0.694931    0.419842     0.007504
PT1763   PT        0.537439    0.734408    0.382063     0.004505
AU1764   AU        0.571945    0.694149    0.381324     0.007504
AU1765   AU        0.570504    0.733622    0.420638     0.007504
PT1766   PT        0.605564    0.695262    0.420703     0.004505
PT1767   PT        0.605558    0.736522    0.382666     0.004505
PT1768   PT        0.640449    0.696423    0.381395     0.004505
PT1769   PT        0.643070    0.732284    0.421814     0.004505
AU1770   AU        0.679708    0.696513    0.419828     0.007504
AU1771   AU        0.680023    0.731923    0.381772     0.007504
PT1772   PT        0.715760    0.695136    0.381072     0.004505
AU1773   AU        0.714689    0.732119    0.421158     0.007504
PT1774   PT        0.749434    0.693943    0.419957     0.004505
PT1775   PT        0.747785    0.732492    0.382280     0.004505
AU1776   AU        0.782741    0.694870    0.383227     0.007504
PT1777   PT        0.782795    0.731434    0.419627     0.004505
AU1778   AU        0.107510    0.768820    0.422432     0.007504
PT1779   PT        0.144020    0.771286    0.383557     0.004505
PT1780   PT        0.142949    0.806500    0.420114     0.004505
PT1781   PT        0.176902    0.769591    0.422617     0.004505
PT1782   PT        0.178378    0.808080    0.385092     0.004505
AU1783   AU        0.212674    0.770695    0.383269     0.007504
PT1784   PT        0.211012    0.808212    0.421403     0.004505
PT1785   PT        0.250623    0.770260    0.422514     0.004505
AU1786   AU        0.247146    0.807927    0.385276     0.007504
AU1787   AU        0.284108    0.770711    0.383297     0.007504
PT1788   PT        0.284299    0.810336    0.420630     0.004505
PT1789   PT        0.322030    0.769765    0.419811     0.004505
PT1790   PT        0.322114    0.811469    0.382980     0.004505
AU1791   AU        0.356722    0.770885    0.382412     0.007504
AU1792   AU        0.356489    0.808297    0.420493     0.007504
PT1793   PT        0.391734    0.771513    0.419826     0.004505
PT1794   PT        0.391511    0.810539    0.382480     0.004505
PT1795   PT        0.427078    0.772285    0.382306     0.004505
AU1796   AU        0.427941    0.809996    0.421317     0.007504
AU1797   AU        0.462859    0.771187    0.419472     0.007504
AU1798   AU        0.463618    0.810997    0.383268     0.007504
AU1799   AU        0.499172    0.770508    0.383846     0.007504
PT1800   PT        0.498823    0.809375    0.421160     0.004505
PT1801   PT        0.535126    0.772265    0.420026     0.004505
PT1802   PT        0.536268    0.809584    0.380926     0.004505
AU1803   AU        0.570322    0.772510    0.383203     0.007504
AU1804   AU        0.571425    0.808723    0.421376     0.007504
AU1805   AU        0.606395    0.773130    0.422430     0.007504
PT1806   PT        0.606074    0.809396    0.382621     0.004505
PT1807   PT        0.642013    0.770603    0.383655     0.004505
PT1808   PT        0.641118    0.807659    0.420785     0.004505
AU1809   AU        0.676310    0.771380    0.422381     0.007504
PT1810   PT        0.676355    0.808114    0.382754     0.004505
PT1811   PT        0.712606    0.770004    0.382664     0.004505
PT1812   PT        0.713431    0.808017    0.420962     0.004505
AU1813   AU        0.747499    0.771253    0.421712     0.007504
PT1814   PT        0.178214    0.845815    0.422122     0.004505
PT1815   PT        0.213768    0.844239    0.383339     0.004505
PT1816   PT        0.247750    0.845476    0.421341     0.004505
PT1817   PT        0.248654    0.882669    0.382087     0.004505
AU1818   AU        0.284592    0.847487    0.382615     0.007504
AU1819   AU        0.283170    0.882637    0.421550     0.007504
PT1820   PT        0.318914    0.847049    0.421418     0.004505
AU1821   AU        0.320096    0.883383    0.380906     0.007504
PT1822   PT        0.356625    0.846795    0.383265     0.004505
AU1823   AU        0.356021    0.884061    0.424216     0.007504
PT1824   PT        0.392747    0.847209    0.421582     0.004505
PT1825   PT        0.393154    0.883886    0.382373     0.004505
PT1826   PT        0.428027    0.847597    0.382550     0.004505
PT1827   PT        0.427768    0.884406    0.419876     0.004505
AU1828   AU        0.463980    0.848038    0.420739     0.007504
PT1829   PT        0.464052    0.884776    0.384043     0.004505
PT1830   PT        0.498662    0.846605    0.384112     0.004505
PT1831   PT        0.499300    0.884108    0.421095     0.004505
AU1832   AU        0.534104    0.846011    0.420326     0.007504
PT1833   PT        0.535239    0.881534    0.381150     0.004505
AU1834   AU        0.570936    0.846241    0.381091     0.007504
PT1835   PT        0.571799    0.881932    0.421319     0.004505
AU1836   AU        0.606311    0.844585    0.420833     0.007504
PT1837   PT        0.605399    0.882181    0.381726     0.004505
AU1838   AU        0.641629    0.844700    0.381299     0.007504
PT1839   PT        0.677930    0.844797    0.420442     0.004505
AU1840   AU        0.393700    0.920686    0.419673     0.007504
AU1841   AU        0.429332    0.921941    0.383789     0.007504
PT1842   PT        0.463039    0.921042    0.423152     0.004505
AU1843   AU        0.247300    0.040806    0.459230     0.007504
PT1844   PT        0.261851    0.011420    0.499459     0.004505
PT1845   PT        0.322093    0.042106    0.459085     0.004505
AU1846   AU        0.359646    0.004065    0.459035     0.007504
PT1847   PT        0.356316    0.042643    0.498530     0.004505
PT1848   PT        0.392035    0.002676    0.498441     0.004505
AU1849   AU        0.393861    0.039658    0.461922     0.007504
PT1850   PT        0.428775    0.002175    0.460356     0.004505
AU1851   AU        0.428030    0.038804    0.498700     0.007504
PT1852   PT        0.463494    0.002735    0.499798     0.004505
AU1853   AU        0.463625    0.038109    0.460437     0.007504
AU1854   AU        0.499151    0.002504    0.463173     0.007504
PT1855   PT        0.501547    0.040523    0.498964     0.004505
PT1856   PT        0.535892    0.040728    0.459291     0.004505
PT1857   PT        0.572192    0.041242    0.500844     0.004505
PT1858   PT        0.607737    0.040928    0.459837     0.004505
PT1859   PT        0.142810    0.116692    0.499722     0.004505
PT1860   PT        0.180232    0.080150    0.498403     0.004505
AU1861   AU        0.177313    0.115863    0.460196     0.007504
PT1862   PT        0.213933    0.078992    0.460422     0.004505
AU1863   AU        0.213449    0.115615    0.500001     0.007504
AU1864   AU        0.248866    0.077275    0.500986     0.007504
AU1865   AU        0.248128    0.116027    0.461255     0.007504
PT1866   PT        0.283546    0.078774    0.459484     0.004505
AU1867   AU        0.283117    0.114878    0.499032     0.007504
PT1868   PT        0.319350    0.076374    0.500833     0.004505
PT1869   PT        0.322228    0.113008    0.461411     0.004505
AU1870   AU        0.358932    0.076697    0.459038     0.007504
PT1871   PT        0.357126    0.113973    0.499960     0.004505
PT1872   PT        0.392924    0.077091    0.500508     0.004505
PT1873   PT        0.391787    0.113851    0.457718     0.004505
AU1874   AU        0.429145    0.077385    0.460597     0.007504
PT1875   PT        0.430809    0.114538    0.501630     0.004505
AU1876   AU        0.463904    0.076896    0.498504     0.007504
AU1877   AU        0.464741    0.113609    0.461686     0.007504
AU1878   AU        0.500722    0.076199    0.461767     0.007504
PT1879   PT        0.500506    0.113239    0.499018     0.004505
AU1880   AU        0.537652    0.078015    0.498927     0.007504
PT1881   PT        0.535662    0.114013    0.460884     0.004505
PT1882   PT        0.571265    0.077050    0.459259     0.004505
AU1883   AU        0.571250    0.113730    0.498014     0.007504
AU1884   AU        0.606264    0.077841    0.498621     0.007504
PT1885   PT        0.608255    0.115391    0.459099     0.004505
AU1886   AU        0.642760    0.077692    0.460369     0.007504
PT1887   PT        0.643032    0.115666    0.497006     0.004505
AU1888   AU        0.677798    0.078656    0.496287     0.007504
PT1889   PT        0.678870    0.115691    0.459188     0.004505
PT1890   PT        0.712345    0.117019    0.497793     0.004505
AU1891   AU        0.075815    0.194370    0.499467     0.007504
AU1892   AU        0.110633    0.157116    0.498656     0.007504
AU1893   AU        0.109150    0.192592    0.460732     0.007504
PT1894   PT        0.143848    0.155993    0.460605     0.004505
PT1895   PT        0.143021    0.193661    0.500409     0.004505
PT1896   PT        0.178415    0.153883    0.497670     0.004505
AU1897   AU        0.178204    0.189924    0.462859     0.007504
AU1898   AU        0.212891    0.152220    0.461811     0.007504
PT1899   PT        0.212313    0.190235    0.498809     0.004505
AU1900   AU        0.248754    0.153644    0.500962     0.007504
AU1901   AU        0.247596    0.190121    0.462405     0.007504
AU1902   AU        0.283346    0.152607    0.461337     0.007504
PT1903   PT        0.284286    0.192238    0.499075     0.004505
PT1904   PT        0.319328    0.152639    0.498967     0.004505
AU1905   AU        0.319805    0.191081    0.461090     0.007504
AU1906   AU        0.355916    0.153164    0.460762     0.007504
PT1907   PT        0.356354    0.188694    0.500176     0.004505
AU1908   AU        0.393547    0.150293    0.499923     0.007504
AU1909   AU        0.393196    0.190885    0.460397     0.007504
AU1910   AU        0.427292    0.152948    0.460157     0.007504
AU1911   AU        0.429844    0.190005    0.498508     0.007504
AU1912   AU        0.464241    0.153745    0.499396     0.007504
PT1913   PT        0.464541    0.191635    0.458252     0.004505
AU1914   AU        0.500253    0.152623    0.460691     0.007504
AU1915   AU        0.500865    0.190835    0.500670     0.007504
PT1916   PT        0.534856    0.151981    0.500911     0.004505
AU1917   AU        0.536949    0.189613    0.459654     0.007504
AU1918   AU        0.571879    0.153984    0.460932     0.007504
PT1919   PT        0.569308    0.190123    0.499334     0.004505
AU1920   AU        0.607510    0.152906    0.498282     0.007504
AU1921   AU        0.606999    0.191539    0.458803     0.007504
AU1922   AU        0.643897    0.153611    0.459035     0.007504
PT1923   PT        0.642400    0.188550    0.498008     0.004505
PT1924   PT        0.678732    0.152324    0.499513     0.004505
AU1925   AU        0.678642    0.190321    0.460720     0.007504
AU1926   AU        0.713629    0.153228    0.459656     0.007504
PT1927   PT        0.714959    0.190598    0.496698     0.004505
AU1928   AU        0.749316    0.154336    0.495635     0.007504
PT1929   PT        0.750690    0.191492    0.459133     0.004505
PT1930   PT        0.785233    0.194417    0.495451     0.004505
AU1931   AU        0.037247    0.268412    0.463323     0.007504
AU1932   AU        0.073619    0.232422    0.460451     0.007504
PT1933   PT        0.073603    0.270284    0.498905     0.004505
AU1934   AU        0.107831    0.232573    0.499410     0.007504
AU1935   AU        0.107294    0.268982    0.461011     0.007504
PT1936   PT        0.143429    0.229995    0.461206     0.004505
PT1937   PT        0.141781    0.268521    0.502048     0.004505
AU1938   AU        0.177361    0.230304    0.499399     0.007504
PT1939   PT        0.177008    0.268847    0.461304     0.004505
AU1940   AU        0.212419    0.230238    0.462108     0.007504
AU1941   AU        0.212919    0.267713    0.500359     0.007504
AU1942   AU        0.248590    0.231219    0.498934     0.007504
AU1943   AU        0.251219    0.267350    0.458213     0.007504
AU1944   AU        0.284737    0.230452    0.459342     0.007504
AU1945   AU        0.284172    0.266840    0.498913     0.007504
AU1946   AU        0.320097    0.227531    0.497626     0.007504
AU1947   AU        0.320103    0.268787    0.459868     0.007504
AU1948   AU        0.354986    0.229532    0.460993     0.007504
AU1949   AU        0.357541    0.269066    0.499417     0.007504
AU1950   AU        0.391229    0.228847    0.500463     0.007504
AU1951   AU        0.390832    0.269401    0.463769     0.007504
PT1952   PT        0.427935    0.227108    0.460312     0.004505
AU1953   AU        0.427651    0.267665    0.498086     0.007504
AU1954   AU        0.465328    0.228318    0.498756     0.007504
AU1955   AU        0.465203    0.265117    0.461146     0.007504
AU1956   AU        0.499913    0.228517    0.460132     0.007504
AU1957   AU        0.500036    0.266698    0.499083     0.007504
AU1958   AU        0.534866    0.228763    0.499554     0.007504
AU1959   AU        0.535321    0.267254    0.458706     0.007504
PT1960   PT        0.569372    0.228525    0.459101     0.004505
AU1961   AU        0.572505    0.264998    0.497652     0.007504
AU1962   AU        0.607218    0.227332    0.497036     0.007504
PT1963   PT        0.605758    0.267333    0.460852     0.004505
PT1964   PT        0.643699    0.227693    0.459060     0.004505
PT1965   PT        0.645282    0.267400    0.499370     0.004505
PT1966   PT        0.680707    0.228514    0.498822     0.004505
PT1967   PT        0.678087    0.264845    0.459405     0.004505
AU1968   AU        0.715613    0.229366    0.458820     0.007504
AU1969   AU        0.715367    0.266661    0.499076     0.007504
AU1970   AU        0.749598    0.231578    0.498660     0.007504
PT1971   PT        0.750295    0.269033    0.459618     0.004505
AU1972   AU        0.782348    0.231937    0.460396     0.007504
PT1973   PT        0.784208    0.269812    0.496029     0.004505
AU1974   AU        0.815272    0.270476    0.458178     0.007504
AU1975   AU        0.037750    0.306223    0.501603     0.007504
AU1976   AU        0.037947    0.347281    0.460108     0.007504
PT1977   PT        0.071862    0.309023    0.460694     0.004505
AU1978   AU        0.071022    0.347788    0.499572     0.007504
AU1979   AU        0.105880    0.308288    0.500479     0.007504
PT1980   PT        0.105130    0.346528    0.461671     0.004505
PT1981   PT        0.140844    0.309267    0.459533     0.004505
AU1982   AU        0.141065    0.346550    0.499025     0.007504
AU1983   AU        0.176755    0.307363    0.497375     0.007504
AU1984   AU        0.178300    0.346442    0.460285     0.007504
AU1985   AU        0.214916    0.306881    0.460989     0.007504
AU1986   AU        0.212972    0.345755    0.498184     0.007504
PT1987   PT        0.249623    0.307185    0.496927     0.004505
AU1988   AU        0.249278    0.346948    0.461583     0.007504
AU1989   AU        0.287082    0.307985    0.460874     0.007504
AU1990   AU        0.285582    0.343929    0.498095     0.007504
PT1991   PT        0.320383    0.304606    0.501394     0.004505
AU1992   AU        0.319978    0.345646    0.458487     0.007504
AU1993   AU        0.355464    0.308307    0.461287     0.007504
AU1994   AU        0.355427    0.343618    0.500021     0.007504
AU1995   AU        0.392942    0.307529    0.502096     0.007504
AU1996   AU        0.391735    0.344012    0.460093     0.007504
AU1997   AU        0.427011    0.307843    0.461168     0.007504
AU1998   AU        0.427811    0.344313    0.500043     0.007504
AU1999   AU        0.466365    0.305361    0.496936     0.007504
AU2000   AU        0.466267    0.346653    0.458707     0.007504
PT2001   PT        0.500164    0.307401    0.457398     0.004505
AU2002   AU        0.500799    0.347274    0.497468     0.007504
PT2003   PT        0.533004    0.307114    0.498586     0.004505
AU2004   AU        0.534852    0.343500    0.460855     0.007504
PT2005   PT        0.570695    0.306863    0.460044     0.004505
AU2006   AU        0.571603    0.345727    0.499955     0.007504
PT2007   PT        0.607378    0.303432    0.498605     0.004505
AU2008   AU        0.604362    0.345392    0.461354     0.007504
PT2009   PT        0.641566    0.308063    0.460273     0.004505
AU2010   AU        0.642283    0.348411    0.499112     0.007504
PT2011   PT        0.680857    0.304859    0.498407     0.004505
AU2012   AU        0.679720    0.344724    0.460413     0.007504
PT2013   PT        0.714443    0.306358    0.460709     0.004505
PT2014   PT        0.715007    0.343913    0.501090     0.004505
AU2015   AU        0.750682    0.306376    0.498344     0.007504
PT2016   PT        0.748144    0.346125    0.461131     0.004505
AU2017   AU        0.782316    0.308696    0.460230     0.007504
AU2018   AU        0.783205    0.347403    0.498440     0.007504
AU2019   AU        0.816528    0.310766    0.496962     0.007504
PT2020   PT        0.815772    0.347725    0.459859     0.004505
PT2021   PT        0.003759    0.384451    0.461742     0.004505
AU2022   AU        0.000714    0.425528    0.498428     0.007504
PT2023   PT        0.036703    0.384983    0.499649     0.004505
PT2024   PT        0.036839    0.423480    0.463027     0.004505
AU2025   AU        0.070911    0.385202    0.461220     0.007504
PT2026   PT        0.069813    0.423476    0.499318     0.004505
PT2027   PT        0.104945    0.384341    0.499705     0.004505
AU2028   AU        0.104349    0.423526    0.461180     0.007504
PT2029   PT        0.141457    0.386809    0.460044     0.004505
AU2030   AU        0.139784    0.423512    0.501114     0.007504
PT2031   PT        0.175999    0.384098    0.498352     0.004505
AU2032   AU        0.175181    0.425214    0.461140     0.007504
PT2033   PT        0.212649    0.385014    0.457574     0.004505
AU2034   AU        0.214252    0.423746    0.496367     0.007504
AU2035   AU        0.249916    0.384709    0.500709     0.007504
AU2036   AU        0.249682    0.423888    0.459973     0.007504
AU2037   AU        0.284512    0.384418    0.458704     0.007504
PT2038   PT        0.284203    0.425033    0.498053     0.004505
PT2039   PT        0.321654    0.384751    0.496244     0.004505
AU2040   AU        0.321240    0.423874    0.459292     0.007504
AU2041   AU        0.357434    0.383626    0.459732     0.007504
AU2042   AU        0.354067    0.422966    0.498530     0.007504
AU2043   AU        0.394992    0.385114    0.497339     0.007504
AU2044   AU        0.389222    0.423150    0.460339     0.007504
PT2045   PT        0.429777    0.382525    0.459308     0.004505
AU2046   AU        0.427500    0.425022    0.497367     0.007504
AU2047   AU        0.463561    0.384513    0.498591     0.007504
AU2048   AU        0.464990    0.419928    0.459873     0.007504
AU2049   AU        0.503278    0.384110    0.459568     0.007504
AU2050   AU        0.500086    0.422146    0.499176     0.007504
AU2051   AU        0.536548    0.382135    0.496992     0.007504
PT2052   PT        0.535487    0.421789    0.461801     0.004505
PT2053   PT        0.569907    0.382630    0.457858     0.004505
AU2054   AU        0.570028    0.422048    0.497970     0.007504
AU2055   AU        0.606816    0.385315    0.499338     0.007504
PT2056   PT        0.606750    0.423028    0.458533     0.004505
AU2057   AU        0.642231    0.383856    0.459962     0.007504
AU2058   AU        0.641652    0.423072    0.499838     0.007504
AU2059   AU        0.679189    0.384138    0.498847     0.007504
PT2060   PT        0.676956    0.421994    0.457872     0.004505
AU2061   AU        0.713747    0.383182    0.462323     0.007504
AU2062   AU        0.714152    0.424060    0.497698     0.007504
PT2063   PT        0.748749    0.383838    0.499788     0.004505
PT2064   PT        0.749428    0.422551    0.461209     0.004505
AU2065   AU        0.781820    0.383293    0.459651     0.007504
PT2066   PT        0.782467    0.424055    0.499807     0.004505
PT2067   PT        0.817521    0.386220    0.498456     0.004505
AU2068   AU        0.814543    0.425411    0.458880     0.007504
PT2069   PT        0.847958    0.386688    0.459243     0.004505
PT2070   PT        0.847382    0.425722    0.496325     0.004505
AU2071   AU        0.002239    0.462562    0.461451     0.007504
AU2072   AU        0.003466    0.500035    0.498689     0.007504
PT2073   PT        0.036714    0.461131    0.499106     0.004505
AU2074   AU        0.037752    0.500740    0.461724     0.007504
PT2075   PT        0.070552    0.460534    0.460149     0.004505
PT2076   PT        0.071080    0.502173    0.499155     0.004505
PT2077   PT        0.103805    0.462399    0.498976     0.004505
AU2078   AU        0.104171    0.500873    0.461906     0.007504
PT2079   PT        0.140453    0.463665    0.460189     0.004505
PT2080   PT        0.140173    0.502997    0.499423     0.004505
AU2081   AU        0.175889    0.462774    0.499097     0.007504
AU2082   AU        0.176637    0.501283    0.462241     0.007504
PT2083   PT        0.210119    0.462603    0.460175     0.004505
AU2084   AU        0.213331    0.500294    0.498467     0.007504
AU2085   AU        0.248127    0.461340    0.496711     0.007504
AU2086   AU        0.247861    0.503338    0.461251     0.007504
AU2087   AU        0.284119    0.462271    0.460618     0.007504
AU2088   AU        0.284982    0.499577    0.498490     0.007504
AU2089   AU        0.320515    0.462798    0.499185     0.007504
AU2090   AU        0.320883    0.499820    0.460607     0.007504
AU2091   AU        0.355011    0.460785    0.459813     0.007504
AU2092   AU        0.357213    0.499807    0.498181     0.007504
AU2093   AU        0.391850    0.460358    0.498564     0.007504
AU2094   AU        0.390382    0.498616    0.459075     0.007504
AU2095   AU        0.429854    0.461627    0.460906     0.007504
AU2096   AU        0.427850    0.501929    0.497885     0.007504
AU2097   AU        0.463452    0.462012    0.497916     0.007504
AU2098   AU        0.465252    0.502303    0.460343     0.007504
AU2099   AU        0.498732    0.459694    0.460388     0.007504
AU2100   AU        0.500530    0.500843    0.499085     0.007504
AU2101   AU        0.533962    0.460916    0.499217     0.007504
AU2102   AU        0.535783    0.501856    0.459992     0.007504
AU2103   AU        0.569717    0.461826    0.461029     0.007504
AU2104   AU        0.570031    0.498655    0.500440     0.007504
AU2105   AU        0.605679    0.462314    0.499221     0.007504
AU2106   AU        0.604560    0.502292    0.461071     0.007504
PT2107   PT        0.639974    0.460747    0.464429     0.004505
PT2108   PT        0.641441    0.498242    0.502351     0.004505
PT2109   PT        0.677424    0.461667    0.498061     0.004505
PT2110   PT        0.676798    0.498016    0.462138     0.004505
PT2111   PT        0.714492    0.462791    0.459202     0.004505
PT2112   PT        0.715295    0.500189    0.501552     0.004505
PT2113   PT        0.747939    0.460693    0.499510     0.004505
PT2114   PT        0.747999    0.503557    0.461353     0.004505
PT2115   PT        0.780396    0.462974    0.459597     0.004505
PT2116   PT        0.782343    0.499447    0.500698     0.004505
PT2117   PT        0.815042    0.461807    0.496783     0.004505
AU2118   AU        0.814718    0.500351    0.457760     0.007504
AU2119   AU        0.847428    0.462314    0.458573     0.007504
AU2120   AU        0.847185    0.499000    0.495321     0.007504
PT2121   PT        0.002945    0.538541    0.460235     0.004505
PT2122   PT        0.036670    0.538892    0.497524     0.004505
AU2123   AU        0.036395    0.577434    0.461527     0.007504
PT2124   PT        0.070071    0.541194    0.461029     0.004505
PT2125   PT        0.069844    0.579545    0.498943     0.004505
AU2126   AU        0.105705    0.540394    0.498305     0.007504
PT2127   PT        0.105689    0.578293    0.460505     0.004505
PT2128   PT        0.142019    0.540044    0.461555     0.004505
AU2129   AU        0.142158    0.580023    0.497071     0.007504
AU2130   AU        0.177714    0.539452    0.500802     0.007504
AU2131   AU        0.176900    0.580917    0.460421     0.007504
AU2132   AU        0.211855    0.540323    0.460221     0.007504
AU2133   AU        0.212092    0.578487    0.498862     0.007504
AU2134   AU        0.250032    0.539989    0.498845     0.007504
AU2135   AU        0.249432    0.577434    0.461917     0.007504
AU2136   AU        0.284525    0.539786    0.459329     0.007504
AU2137   AU        0.283700    0.579295    0.499664     0.007504
AU2138   AU        0.318908    0.540325    0.496371     0.007504
AU2139   AU        0.317765    0.579589    0.460015     0.007504
PT2140   PT        0.355625    0.537641    0.460863     0.004505
AU2141   AU        0.353559    0.578563    0.498043     0.007504
AU2142   AU        0.391437    0.539321    0.498713     0.007504
AU2143   AU        0.390963    0.578959    0.460881     0.007504
AU2144   AU        0.428245    0.537158    0.461540     0.007504
AU2145   AU        0.427988    0.578191    0.498522     0.007504
AU2146   AU        0.464068    0.536841    0.498946     0.007504
PT2147   PT        0.462665    0.576668    0.462355     0.004505
AU2148   AU        0.499945    0.541650    0.458068     0.007504
AU2149   AU        0.498966    0.579759    0.496868     0.007504
AU2150   AU        0.533224    0.540420    0.498077     0.007504
AU2151   AU        0.534566    0.580592    0.460703     0.007504
AU2152   AU        0.570538    0.539388    0.460579     0.007504
PT2153   PT        0.570208    0.583786    0.494339     0.004505
PT2154   PT        0.605072    0.534207    0.504076     0.004505
PT2155   PT        0.608074    0.581784    0.454804     0.004505
AU2156   AU        0.645418    0.543081    0.455946     0.007504
AU2157   AU        0.645828    0.583531    0.494100     0.007504
AU2158   AU        0.676756    0.536187    0.498302     0.007504
AU2159   AU        0.680326    0.581423    0.458022     0.007504
PT2160   PT        0.713690    0.542008    0.460627     0.004505
PT2161   PT        0.715832    0.581292    0.496298     0.004505
AU2162   AU        0.748294    0.540288    0.500241     0.007504
AU2163   AU        0.749120    0.579944    0.456957     0.007504
PT2164   PT        0.781803    0.539666    0.457809     0.004505
PT2165   PT        0.781976    0.578192    0.498636     0.004505
AU2166   AU        0.814752    0.537556    0.496107     0.007504
PT2167   PT        0.816668    0.577015    0.459505     0.004505
AU2168   AU        0.847377    0.536610    0.459439     0.007504
AU2169   AU        0.036406    0.617046    0.498479     0.007504
AU2170   AU        0.037766    0.655515    0.460325     0.007504
PT2171   PT        0.070940    0.617512    0.462263     0.004505
PT2172   PT        0.070767    0.653180    0.499816     0.004505
PT2173   PT        0.105996    0.616519    0.499537     0.004505
AU2174   AU        0.105614    0.654405    0.461276     0.007504
PT2175   PT        0.140474    0.615838    0.458785     0.004505
AU2176   AU        0.141700    0.654755    0.499467     0.007504
AU2177   AU        0.175815    0.616118    0.499230     0.007504
AU2178   AU        0.177172    0.656849    0.459313     0.007504
AU2179   AU        0.213393    0.618066    0.459989     0.007504
AU2180   AU        0.213153    0.657027    0.497906     0.007504
AU2181   AU        0.247749    0.615976    0.497092     0.007504
AU2182   AU        0.249370    0.655480    0.461310     0.007504
PT2183   PT        0.284105    0.617722    0.460336     0.004505
AU2184   AU        0.283157    0.653771    0.496428     0.007504
AU2185   AU        0.320596    0.618906    0.498153     0.007504
AU2186   AU        0.321348    0.655508    0.459631     0.007504
AU2187   AU        0.357196    0.617921    0.461745     0.007504
PT2188   PT        0.357025    0.656481    0.498807     0.004505
AU2189   AU        0.393870    0.617109    0.497982     0.007504
PT2190   PT        0.392973    0.656983    0.457517     0.004505
AU2191   AU        0.426835    0.617198    0.459362     0.007504
PT2192   PT        0.426928    0.653723    0.498574     0.004505
AU2193   AU        0.462813    0.617000    0.498496     0.007504
AU2194   AU        0.463926    0.656535    0.458947     0.007504
PT2195   PT        0.497278    0.615304    0.459336     0.004505
PT2196   PT        0.498564    0.654408    0.498514     0.004505
PT2197   PT        0.532798    0.616449    0.500281     0.004505
PT2198   PT        0.537675    0.656899    0.460734     0.004505
AU2199   AU        0.572880    0.619213    0.458054     0.007504
AU2200   AU        0.573254    0.657267    0.495350     0.007504
AU2201   AU        0.606829    0.620645    0.496046     0.007504
AU2202   AU        0.608225    0.656085    0.458782     0.007504
PT2203   PT        0.643461    0.620079    0.457905     0.004505
PT2204   PT        0.643293    0.658831    0.497313     0.004505
PT2205   PT        0.679735    0.618670    0.497272     0.004505
PT2206   PT        0.678988    0.657520    0.460707     0.004505
PT2207   PT        0.715278    0.620592    0.459895     0.004505
PT2208   PT        0.714959    0.658784    0.498504     0.004505
PT2209   PT        0.749287    0.618920    0.496889     0.004505
PT2210   PT        0.751307    0.656911    0.459124     0.004505
PT2211   PT        0.783071    0.618499    0.456837     0.004505
AU2212   AU        0.783480    0.656708    0.499250     0.007504
PT2213   PT        0.814607    0.615138    0.498847     0.004505
PT2214   PT        0.817613    0.654471    0.458849     0.004505
PT2215   PT        0.073882    0.691108    0.459640     0.004505
AU2216   AU        0.072191    0.729246    0.498096     0.007504
AU2217   AU        0.106213    0.692138    0.499067     0.007504
PT2218   PT        0.106839    0.731857    0.458506     0.004505
AU2219   AU        0.142208    0.694075    0.460337     0.007504
PT2220   PT        0.140542    0.731705    0.497140     0.004505
PT2221   PT        0.175374    0.695966    0.499559     0.004505
AU2222   AU        0.177513    0.731823    0.459287     0.007504
PT2223   PT        0.213392    0.693662    0.460151     0.004505
AU2224   AU        0.212493    0.732915    0.498100     0.007504
PT2225   PT        0.247709    0.696534    0.499388     0.004505
AU2226   AU        0.247439    0.732530    0.460133     0.007504
AU2227   AU        0.283588    0.692686    0.460280     0.007504
AU2228   AU        0.285192    0.733125    0.500597     0.007504
AU2229   AU        0.320244    0.693621    0.501236     0.007504
PT2230   PT        0.322309    0.732175    0.460228     0.004505
PT2231   PT        0.357425    0.693345    0.457765     0.004505
AU2232   AU        0.357024    0.731830    0.499030     0.007504
AU2233   AU        0.392071    0.691872    0.497294     0.007504
AU2234   AU        0.393210    0.731803    0.460979     0.007504
AU2235   AU        0.428886    0.696432    0.457836     0.007504
AU2236   AU        0.428920    0.732878    0.499624     0.007504
AU2237   AU        0.464846    0.695468    0.497828     0.007504
AU2238   AU        0.464632    0.733742    0.460834     0.007504
AU2239   AU        0.501212    0.693760    0.460905     0.007504
AU2240   AU        0.499672    0.731743    0.500593     0.007504
AU2241   AU        0.537461    0.695084    0.498045     0.007504
PT2242   PT        0.536286    0.731379    0.461212     0.004505
AU2243   AU        0.570166    0.696360    0.458030     0.007504
AU2244   AU        0.571310    0.734898    0.497050     0.007504
AU2245   AU        0.606086    0.697203    0.496499     0.007504
AU2246   AU        0.608718    0.733864    0.460512     0.007504
AU2247   AU        0.642801    0.695598    0.460210     0.007504
PT2248   PT        0.643871    0.732975    0.499539     0.004505
AU2249   AU        0.677939    0.696031    0.498516     0.007504
AU2250   AU        0.679694    0.732412    0.460335     0.007504
PT2251   PT        0.713885    0.695095    0.458907     0.004505
PT2252   PT        0.713878    0.732498    0.498355     0.004505
PT2253   PT        0.748764    0.694243    0.498549     0.004505
AU2254   AU        0.750058    0.730709    0.458447     0.007504
PT2255   PT        0.785613    0.695019    0.458624     0.004505
PT2256   PT        0.783642    0.730958    0.496684     0.004505
PT2257   PT        0.106805    0.770269    0.500307     0.004505
AU2258   AU        0.141677    0.768815    0.460654     0.007504
PT2259   PT        0.142918    0.805928    0.499714     0.004505
PT2260   PT        0.177622    0.768610    0.497140     0.004505
PT2261   PT        0.176575    0.807669    0.458323     0.004505
AU2262   AU        0.213094    0.770128    0.458530     0.007504
PT2263   PT        0.213902    0.808646    0.497278     0.004505
AU2264   AU        0.249368    0.770444    0.498970     0.007504
PT2265   PT        0.248237    0.807833    0.459991     0.004505
PT2266   PT        0.283107    0.770296    0.461930     0.004505
PT2267   PT        0.283603    0.809293    0.498561     0.004505
PT2268   PT        0.317681    0.773530    0.498553     0.004505
PT2269   PT        0.318744    0.809820    0.458017     0.004505
PT2270   PT        0.354776    0.771564    0.461210     0.004505
AU2271   AU        0.353651    0.810994    0.500758     0.007504
AU2272   AU        0.392617    0.771582    0.499792     0.007504
AU2273   AU        0.391565    0.809934    0.459117     0.007504
PT2274   PT        0.427035    0.770573    0.458506     0.004505
PT2275   PT        0.426874    0.810013    0.499487     0.004505
AU2276   AU        0.464347    0.773456    0.498825     0.007504
PT2277   PT        0.462850    0.809260    0.459715     0.004505
PT2278   PT        0.500841    0.773105    0.459301     0.004505
AU2279   AU        0.499793    0.808366    0.499024     0.007504
AU2280   AU        0.533918    0.771459    0.497924     0.007504
PT2281   PT        0.535542    0.809605    0.460286     0.004505
PT2282   PT        0.571393    0.771013    0.457817     0.004505
AU2283   AU        0.572197    0.807918    0.495688     0.007504
AU2284   AU        0.607875    0.771007    0.498160     0.007504
AU2285   AU        0.607747    0.809921    0.459626     0.007504
AU2286   AU        0.645548    0.771087    0.459982     0.007504
PT2287   PT        0.642363    0.809741    0.498608     0.004505
PT2288   PT        0.679518    0.769626    0.496586     0.004505
PT2289   PT        0.679524    0.808735    0.458815     0.004505
PT2290   PT        0.714661    0.770882    0.459377     0.004505
AU2291   AU        0.711763    0.807445    0.497703     0.007504
PT2292   PT        0.749539    0.767845    0.498353     0.004505
AU2293   AU        0.177387    0.847145    0.494293     0.007504
PT2294   PT        0.211685    0.844631    0.459191     0.004505
PT2295   PT        0.248132    0.844599    0.498563     0.004505
AU2296   AU        0.246609    0.882661    0.460693     0.007504
PT2297   PT        0.283707    0.846324    0.460393     0.004505
PT2298   PT        0.282960    0.883247    0.500824     0.004505
AU2299   AU        0.319640    0.847770    0.499201     0.007504
AU2300   AU        0.319383    0.883349    0.460615     0.007504
PT2301   PT        0.355975    0.846050    0.461937     0.004505
AU2302   AU        0.355756    0.884356    0.498265     0.007504
PT2303   PT        0.393536    0.848024    0.496101     0.004505
AU2304   AU        0.393674    0.884278    0.459712     0.007504
AU2305   AU        0.428832    0.847945    0.460421     0.007504
PT2306   PT        0.428124    0.884826    0.498641     0.004505
PT2307   PT        0.464463    0.847423    0.498532     0.004505
AU2308   AU        0.464226    0.884788    0.459919     0.007504
AU2309   AU        0.499029    0.845700    0.459608     0.007504
AU2310   AU        0.499859    0.884328    0.498492     0.007504
PT2311   PT        0.536496    0.846320    0.496789     0.004505
AU2312   AU        0.534530    0.883558    0.461428     0.007504
AU2313   AU        0.571688    0.847144    0.460670     0.007504
PT2314   PT        0.572087    0.884586    0.497313     0.004505
PT2315   PT        0.607256    0.846872    0.498567     0.004505
PT2316   PT        0.607482    0.881408    0.460919     0.004505
AU2317   AU        0.643858    0.844650    0.461106     0.007504
PT2318   PT        0.678549    0.845654    0.499052     0.004505
PT2319   PT        0.359474    0.921468    0.460717     0.004505
PT2320   PT        0.392970    0.920134    0.497605     0.004505
PT2321   PT        0.428351    0.919796    0.460013     0.004505
PT2322   PT        0.463951    0.919236    0.498499     0.004505
AU2323   AU        0.497042    0.922434    0.461557     0.007504
AU2324   AU        0.249491    0.039537    0.539321     0.007504
AU2325   AU        0.285779    0.039639    0.577619     0.007504
AU2326   AU        0.321332    0.040633    0.541367     0.007504
PT2327   PT        0.356865    0.041613    0.577502     0.004505
PT2328   PT        0.392765    0.040452    0.537137     0.004505
PT2329   PT        0.428321    0.001855    0.538728     0.004505
PT2330   PT        0.427993    0.041205    0.575645     0.004505
PT2331   PT        0.462486    0.041156    0.535781     0.004505
PT2332   PT        0.502175    0.041130    0.578438     0.004505
AU2333   AU        0.536179    0.042485    0.538210     0.007504
AU2334   AU        0.572533    0.041705    0.576717     0.007504
PT2335   PT        0.606116    0.041018    0.540062     0.004505
PT2336   PT        0.178702    0.117669    0.535894     0.004505
PT2337   PT        0.214054    0.078656    0.537651     0.004505
PT2338   PT        0.213710    0.116221    0.576470     0.004505
PT2339   PT        0.249440    0.079817    0.577542     0.004505
PT2340   PT        0.249952    0.115530    0.539181     0.004505
PT2341   PT        0.284846    0.079323    0.540671     0.004505
PT2342   PT        0.286530    0.116195    0.576411     0.004505
PT2343   PT        0.321738    0.078447    0.578600     0.004505
PT2344   PT        0.321492    0.114167    0.539312     0.004505
AU2345   AU        0.357732    0.077946    0.538670     0.007504
PT2346   PT        0.357554    0.115467    0.578458     0.004505
PT2347   PT        0.390961    0.077906    0.576513     0.004505
AU2348   AU        0.393632    0.114377    0.540188     0.007504
PT2349   PT        0.428244    0.076924    0.538104     0.004505
AU2350   AU        0.428798    0.112692    0.575368     0.007504
AU2351   AU        0.464741    0.077041    0.577982     0.007504
AU2352   AU        0.464169    0.113638    0.538693     0.007504
AU2353   AU        0.499529    0.078470    0.539445     0.007504
AU2354   AU        0.500672    0.114873    0.578175     0.007504
AU2355   AU        0.536232    0.077705    0.577123     0.007504
AU2356   AU        0.537356    0.113187    0.537863     0.007504
PT2357   PT        0.572210    0.078162    0.536736     0.004505
PT2358   PT        0.572338    0.114879    0.573632     0.004505
PT2359   PT        0.607947    0.079590    0.575697     0.004505
AU2360   AU        0.607523    0.115260    0.538175     0.007504
PT2361   PT        0.641487    0.076586    0.536312     0.004505
PT2362   PT        0.642826    0.115560    0.574362     0.004505
PT2363   PT        0.675948    0.114364    0.534430     0.004505
PT2364   PT        0.107714    0.192407    0.536852     0.004505
PT2365   PT        0.144334    0.155637    0.538088     0.004505
PT2366   PT        0.142836    0.192849    0.577185     0.004505
PT2367   PT        0.179574    0.152746    0.574923     0.004505
PT2368   PT        0.178059    0.193324    0.538262     0.004505
AU2369   AU        0.213072    0.155513    0.537129     0.007504
PT2370   PT        0.212872    0.191970    0.576232     0.004505
PT2371   PT        0.247520    0.153205    0.575322     0.004505
AU2372   AU        0.249039    0.191442    0.538094     0.007504
AU2373   AU        0.285137    0.153533    0.538238     0.007504
PT2374   PT        0.283202    0.190228    0.577672     0.004505
AU2375   AU        0.322062    0.151669    0.577347     0.007504
PT2376   PT        0.321029    0.190905    0.539911     0.004505
AU2377   AU        0.358008    0.152536    0.541675     0.007504
AU2378   AU        0.357041    0.192515    0.575801     0.007504
PT2379   PT        0.393162    0.153431    0.577882     0.004505
AU2380   AU        0.392375    0.191642    0.539187     0.007504
AU2381   AU        0.428835    0.152537    0.538209     0.007504
AU2382   AU        0.428789    0.190349    0.576118     0.007504
AU2383   AU        0.464551    0.152477    0.577890     0.007504
AU2384   AU        0.463528    0.190834    0.538361     0.007504
AU2385   AU        0.500125    0.152262    0.538035     0.007504
PT2386   PT        0.498728    0.191722    0.576603     0.004505
PT2387   PT        0.534875    0.152978    0.575185     0.004505
AU2388   AU        0.535772    0.189836    0.536866     0.007504
AU2389   AU        0.573222    0.151160    0.538638     0.007504
AU2390   AU        0.570892    0.190305    0.575967     0.007504
AU2391   AU        0.608640    0.152311    0.575755     0.007504
AU2392   AU        0.608197    0.191718    0.537876     0.007504
AU2393   AU        0.642213    0.151352    0.535869     0.007504
PT2394   PT        0.642452    0.190913    0.574200     0.004505
PT2395   PT        0.677571    0.154026    0.575008     0.004505
PT2396   PT        0.678743    0.189255    0.536166     0.004505
PT2397   PT        0.714238    0.153960    0.536667     0.004505
AU2398   AU        0.714875    0.190005    0.574623     0.007504
PT2399   PT        0.750164    0.192001    0.532529     0.004505
PT2400   PT        0.038561    0.268919    0.534961     0.004505
PT2401   PT        0.074511    0.232681    0.538022     0.004505
PT2402   PT        0.072976    0.271470    0.575912     0.004505
PT2403   PT        0.108481    0.231495    0.579202     0.004505
PT2404   PT        0.107559    0.269444    0.539159     0.004505
PT2405   PT        0.141651    0.230355    0.539387     0.004505
PT2406   PT        0.144172    0.266345    0.578018     0.004505
AU2407   AU        0.177795    0.228135    0.578372     0.007504
AU2408   AU        0.178282    0.266019    0.537871     0.007504
AU2409   AU        0.213988    0.228906    0.537839     0.007504
PT2410   PT        0.212804    0.267884    0.574961     0.004505
AU2411   AU        0.249081    0.230346    0.577485     0.007504
AU2412   AU        0.249292    0.268722    0.537764     0.007504
AU2413   AU        0.282893    0.227802    0.537502     0.007504
PT2414   PT        0.285873    0.268290    0.576024     0.004505
AU2415   AU        0.318507    0.228877    0.579635     0.007504
PT2416   PT        0.321657    0.265717    0.539268     0.004505
PT2417   PT        0.357333    0.225463    0.536536     0.004505
AU2418   AU        0.357373    0.265618    0.575155     0.007504
AU2419   AU        0.392266    0.228441    0.575542     0.007504
AU2420   AU        0.393475    0.266562    0.538014     0.007504
AU2421   AU        0.428390    0.228628    0.536569     0.007504
AU2422   AU        0.429170    0.270265    0.577823     0.007504
PT2423   PT        0.465504    0.230323    0.576983     0.004505
AU2424   AU        0.463890    0.266986    0.535609     0.007504
AU2425   AU        0.500444    0.227929    0.539747     0.007504
AU2426   AU        0.498123    0.269183    0.574447     0.007504
AU2427   AU        0.535180    0.227942    0.575066     0.007504
PT2428   PT        0.535985    0.269543    0.536200     0.004505
AU2429   AU        0.570415    0.228479    0.536600     0.007504
AU2430   AU        0.568606    0.268727    0.575445     0.007504
AU2431   AU        0.608930    0.228505    0.576776     0.007504
PT2432   PT        0.605560    0.264057    0.536353     0.004505
AU2433   AU        0.643747    0.229984    0.535599     0.007504
PT2434   PT        0.643942    0.265175    0.576525     0.004505
PT2435   PT        0.679990    0.229407    0.576017     0.004505
PT2436   PT        0.680296    0.267590    0.539068     0.004505
PT2437   PT        0.715177    0.228329    0.535745     0.004505
PT2438   PT        0.714306    0.268668    0.577894     0.004505
AU2439   AU        0.748429    0.231787    0.575263     0.007504
AU2440   AU        0.750221    0.270185    0.538508     0.007504
PT2441   PT        0.784044    0.231914    0.536200     0.004505
AU2442   AU        0.784700    0.267209    0.575546     0.007504
PT2443   PT        0.859558    0.267683    0.573105     0.004505
PT2444   PT        0.037789    0.305775    0.577140     0.004505
AU2445   AU        0.038761    0.345757    0.539401     0.007504
AU2446   AU        0.071592    0.306218    0.537717     0.007504
AU2447   AU        0.070965    0.343693    0.575719     0.007504
AU2448   AU        0.106094    0.307624    0.575699     0.007504
PT2449   PT        0.106076    0.346415    0.537180     0.004505
PT2450   PT        0.143161    0.307165    0.537985     0.004505
AU2451   AU        0.141888    0.345371    0.577247     0.007504
PT2452   PT        0.177572    0.304547    0.577802     0.004505
PT2453   PT        0.175388    0.345304    0.538441     0.004505
PT2454   PT        0.212821    0.306260    0.536747     0.004505
AU2455   AU        0.211734    0.346953    0.576628     0.007504
AU2456   AU        0.247610    0.307308    0.576966     0.007504
AU2457   AU        0.248866    0.342770    0.534598     0.007504
PT2458   PT        0.284577    0.305001    0.536791     0.004505
PT2459   PT        0.284437    0.343501    0.576585     0.004505
AU2460   AU        0.320600    0.306547    0.578639     0.007504
AU2461   AU        0.322006    0.341458    0.537579     0.007504
AU2462   AU        0.358848    0.305192    0.537984     0.007504
AU2463   AU        0.356856    0.343398    0.574712     0.007504
AU2464   AU        0.391444    0.304669    0.574258     0.007504
AU2465   AU        0.394410    0.345000    0.537549     0.007504
AU2466   AU        0.429083    0.306576    0.538495     0.007504
AU2467   AU        0.427583    0.345870    0.575236     0.007504
PT2468   PT        0.465351    0.310155    0.576020     0.004505
AU2469   AU        0.464570    0.343391    0.535778     0.007504
AU2470   AU        0.501251    0.307307    0.535103     0.007504
AU2471   AU        0.501591    0.345833    0.575089     0.007504
AU2472   AU        0.535557    0.308578    0.575806     0.007504
PT2473   PT        0.534926    0.346375    0.537500     0.004505
AU2474   AU        0.572348    0.308774    0.535728     0.007504
PT2475   PT        0.569177    0.345493    0.577623     0.004505
AU2476   AU        0.605880    0.307322    0.575622     0.007504
PT2477   PT        0.607078    0.348183    0.539654     0.004505
PT2478   PT        0.644820    0.308527    0.535336     0.004505
AU2479   AU        0.641481    0.345477    0.577072     0.007504
AU2480   AU        0.678366    0.306104    0.575631     0.007504
AU2481   AU        0.679711    0.345603    0.539511     0.007504
AU2482   AU        0.715811    0.306001    0.537854     0.007504
AU2483   AU        0.716090    0.346531    0.578000     0.007504
PT2484   PT        0.750238    0.305449    0.576376     0.004505
PT2485   PT        0.749909    0.343160    0.538549     0.004505
AU2486   AU        0.785264    0.306417    0.537173     0.007504
PT2487   PT        0.783814    0.346584    0.577800     0.004505
PT2488   PT        0.817750    0.309338    0.576517     0.004505
PT2489   PT        0.817321    0.347855    0.538496     0.004505
PT2490   PT        0.038802    0.381767    0.577988     0.004505
AU2491   AU        0.035733    0.422219    0.536070     0.007504
AU2492   AU        0.069767    0.385858    0.538269     0.007504
AU2493   AU        0.072370    0.423283    0.579958     0.007504
PT2494   PT        0.106405    0.383221    0.577077     0.004505
PT2495   PT        0.105936    0.420165    0.540654     0.004505
PT2496   PT        0.141780    0.385542    0.538223     0.004505
PT2497   PT        0.141595    0.422527    0.576228     0.004505
PT2498   PT        0.177023    0.384528    0.577862     0.004505
AU2499   AU        0.177214    0.424839    0.538260     0.007504
PT2500   PT        0.212143    0.384430    0.535646     0.004505
AU2501   AU        0.213132    0.423429    0.577396     0.007504
PT2502   PT        0.249644    0.382888    0.578528     0.004505
AU2503   AU        0.249000    0.426361    0.538764     0.007504
PT2504   PT        0.285271    0.377240    0.537648     0.004505
PT2505   PT        0.284691    0.428097    0.576558     0.004505
AU2506   AU        0.319255    0.385491    0.580004     0.007504
AU2507   AU        0.318673    0.429516    0.539530     0.007504
AU2508   AU        0.358410    0.380996    0.534376     0.007504
AU2509   AU        0.357325    0.425429    0.579260     0.007504
AU2510   AU        0.391225    0.386615    0.577094     0.007504
AU2511   AU        0.392895    0.422555    0.535726     0.007504
AU2512   AU        0.428379    0.382876    0.536021     0.007504
AU2513   AU        0.427544    0.425949    0.575978     0.007504
AU2514   AU        0.465806    0.385085    0.574041     0.007504
AU2515   AU        0.464472    0.422809    0.535987     0.007504
PT2516   PT        0.500402    0.383790    0.536632     0.004505
AU2517   AU        0.500132    0.423986    0.575265     0.007504
AU2518   AU        0.535558    0.387077    0.575379     0.007504
AU2519   AU        0.534667    0.423526    0.535164     0.007504
PT2520   PT        0.571424    0.384322    0.535851     0.004505
PT2521   PT        0.570891    0.421310    0.576800     0.004505
AU2522   AU        0.608683    0.386494    0.576440     0.007504
AU2523   AU        0.606398    0.423585    0.536015     0.007504
AU2524   AU        0.642648    0.382893    0.539326     0.007504
PT2525   PT        0.642697    0.423369    0.577548     0.004505
PT2526   PT        0.677125    0.383574    0.577411     0.004505
AU2527   AU        0.676784    0.424254    0.536888     0.007504
PT2528   PT        0.714305    0.384168    0.539886     0.004505
PT2529   PT        0.713116    0.421389    0.576849     0.004505
PT2530   PT        0.750334    0.384246    0.575762     0.004505
AU2531   AU        0.749339    0.421601    0.538981     0.007504
PT2532   PT        0.784015    0.385001    0.538158     0.004505
AU2533   AU        0.783831    0.422712    0.575813     0.007504
AU2534   AU        0.817288    0.384974    0.576928     0.007504
AU2535   AU        0.815983    0.424473    0.535528     0.007504
PT2536   PT        0.002864    0.461135    0.535197     0.004505
PT2537   PT        0.035610    0.459624    0.578213     0.004505
PT2538   PT        0.037952    0.499350    0.538049     0.004505
AU2539   AU        0.069629    0.459158    0.539301     0.007504
AU2540   AU        0.070478    0.498110    0.576727     0.007504
PT2541   PT        0.105856    0.462929    0.575299     0.004505
AU2542   AU        0.105169    0.503344    0.537396     0.007504
AU2543   AU        0.139881    0.463695    0.536250     0.007504
AU2544   AU        0.140708    0.501617    0.576084     0.007504
AU2545   AU        0.178885    0.462198    0.577983     0.007504
AU2546   AU        0.177958    0.502291    0.536953     0.007504
AU2547   AU        0.211166    0.462204    0.537951     0.007504
AU2548   AU        0.212332    0.501345    0.574206     0.007504
PT2549   PT        0.246516    0.465541    0.576333     0.004505
AU2550   AU        0.249459    0.504751    0.536838     0.007504
AU2551   AU        0.282652    0.464797    0.538457     0.007504
PT2552   PT        0.283365    0.499997    0.576852     0.004505
AU2553   AU        0.320394    0.464042    0.576934     0.007504
AU2554   AU        0.319753    0.500920    0.536156     0.007504
AU2555   AU        0.355106    0.463051    0.537604     0.007504
AU2556   AU        0.354632    0.499980    0.577894     0.007504
AU2557   AU        0.391524    0.462824    0.576909     0.007504
AU2558   AU        0.390693    0.501009    0.538581     0.007504
AU2559   AU        0.426912    0.463728    0.538130     0.007504
AU2560   AU        0.426748    0.500859    0.576051     0.007504
AU2561   AU        0.464664    0.459902    0.574958     0.007504
AU2562   AU        0.463850    0.501351    0.537578     0.007504
AU2563   AU        0.501633    0.461245    0.535965     0.007504
AU2564   AU        0.498842    0.500026    0.576593     0.007504
PT2565   PT        0.534918    0.461719    0.575499     0.004505
AU2566   AU        0.534826    0.498305    0.536909     0.007504
AU2567   AU        0.572598    0.459967    0.538312     0.007504
PT2568   PT        0.571790    0.498251    0.577960     0.004505
AU2569   AU        0.607952    0.460606    0.577212     0.007504
AU2570   AU        0.606182    0.497890    0.540538     0.007504
PT2571   PT        0.642955    0.460533    0.539684     0.004505
AU2572   AU        0.643529    0.499937    0.577571     0.007504
AU2573   AU        0.680414    0.460418    0.577953     0.007504
AU2574   AU        0.678920    0.501026    0.539664     0.007504
PT2575   PT        0.714040    0.463207    0.538365     0.004505
AU2576   AU        0.712915    0.499418    0.575217     0.007504
AU2577   AU        0.749439    0.461388    0.575771     0.007504
AU2578   AU        0.749331    0.501829    0.538032     0.007504
PT2579   PT        0.782435    0.462210    0.537283     0.004505
PT2580   PT        0.783917    0.500650    0.575079     0.004505
PT2581   PT        0.816104    0.460490    0.572725     0.004505
AU2582   AU        0.818568    0.499901    0.536503     0.007504
PT2583   PT        0.850445    0.461907    0.533975     0.004505
AU2584   AU        0.037505    0.539191    0.575721     0.007504
PT2585   PT        0.036997    0.578393    0.537017     0.004505
PT2586   PT        0.070658    0.539375    0.536971     0.004505
PT2587   PT        0.070362    0.575722    0.575005     0.004505
PT2588   PT        0.106025    0.539184    0.576684     0.004505
AU2589   AU        0.106192    0.577953    0.538912     0.007504
AU2590   AU        0.141736    0.539016    0.536414     0.007504
PT2591   PT        0.140371    0.579815    0.577263     0.004505
AU2592   AU        0.177550    0.542907    0.576500     0.007504
AU2593   AU        0.178623    0.579193    0.538702     0.007504
AU2594   AU        0.212041    0.540105    0.536921     0.007504
AU2595   AU        0.213147    0.579629    0.576999     0.007504
AU2596   AU        0.245622    0.539565    0.575301     0.007504
PT2597   PT        0.248839    0.577216    0.537869     0.004505
PT2598   PT        0.285771    0.538363    0.537552     0.004505
AU2599   AU        0.284405    0.576472    0.576767     0.007504
AU2600   AU        0.321121    0.536911    0.577264     0.007504
AU2601   AU        0.323011    0.578795    0.537092     0.007504
AU2602   AU        0.355841    0.538067    0.535600     0.007504
AU2603   AU        0.356988    0.577221    0.575117     0.007504
AU2604   AU        0.394005    0.541565    0.574875     0.007504
PT2605   PT        0.389503    0.577459    0.535425     0.004505
AU2606   AU        0.428680    0.536156    0.536734     0.007504
AU2607   AU        0.427141    0.579090    0.579485     0.007504
AU2608   AU        0.464887    0.539742    0.576376     0.007504
AU2609   AU        0.463360    0.577557    0.537071     0.007504
AU2610   AU        0.500741    0.539230    0.535377     0.007504
AU2611   AU        0.500318    0.579601    0.575360     0.007504
AU2612   AU        0.535280    0.538232    0.579491     0.007504
AU2613   AU        0.535347    0.578661    0.535517     0.007504
AU2614   AU        0.569613    0.535112    0.540187     0.007504
PT2615   PT        0.571375    0.577937    0.579458     0.004505
AU2616   AU        0.606149    0.536167    0.579797     0.007504
PT2617   PT        0.605442    0.572839    0.543601     0.004505
PT2618   PT        0.641117    0.536601    0.540650     0.004505
AU2619   AU        0.644979    0.576340    0.578143     0.007504
AU2620   AU        0.679682    0.541681    0.577017     0.007504
AU2621   AU        0.678945    0.581617    0.537511     0.007504
AU2622   AU        0.714270    0.539216    0.539520     0.007504
AU2623   AU        0.714286    0.579719    0.577252     0.007504
PT2624   PT        0.749434    0.542546    0.575834     0.004505
PT2625   PT        0.747823    0.578897    0.539400     0.004505
AU2626   AU        0.783908    0.540641    0.537196     0.007504
AU2627   AU        0.785110    0.577775    0.575591     0.007504
AU2628   AU        0.816630    0.540074    0.574726     0.007504
PT2629   PT        0.815962    0.577023    0.535434     0.004505
PT2630   PT        0.038773    0.615093    0.577545     0.004505
PT2631   PT        0.037242    0.655454    0.538506     0.004505
PT2632   PT        0.070837    0.615349    0.537335     0.004505
PT2633   PT        0.072120    0.654028    0.573960     0.004505
PT2634   PT        0.104088    0.616199    0.575852     0.004505
PT2635   PT        0.107171    0.653756    0.538235     0.004505
PT2636   PT        0.140737    0.617118    0.540043     0.004505
PT2637   PT        0.141687    0.656618    0.577619     0.004505
AU2638   AU        0.178888    0.618368    0.576395     0.007504
PT2639   PT        0.178395    0.658276    0.535141     0.004505
AU2640   AU        0.213675    0.617842    0.537550     0.007504
AU2641   AU        0.215567    0.656177    0.576091     0.007504
PT2642   PT        0.248029    0.617060    0.576971     0.004505
AU2643   AU        0.248311    0.657229    0.537363     0.007504
AU2644   AU        0.284244    0.617698    0.536912     0.007504
AU2645   AU        0.285192    0.655084    0.575515     0.007504
AU2646   AU        0.321489    0.615382    0.575620     0.007504
AU2647   AU        0.322484    0.655633    0.537573     0.007504
AU2648   AU        0.358502    0.616497    0.537698     0.007504
AU2649   AU        0.356713    0.657256    0.576011     0.007504
AU2650   AU        0.391641    0.618822    0.576497     0.007504
AU2651   AU        0.392569    0.659144    0.536102     0.007504
AU2652   AU        0.426455    0.616519    0.538738     0.007504
AU2653   AU        0.430458    0.655703    0.576786     0.007504
AU2654   AU        0.463735    0.618643    0.575510     0.007504
AU2655   AU        0.461809    0.655626    0.536254     0.007504
AU2656   AU        0.498361    0.619145    0.538560     0.007504
AU2657   AU        0.497725    0.655826    0.574840     0.007504
PT2658   PT        0.535633    0.620324    0.574823     0.004505
AU2659   AU        0.534728    0.657972    0.537911     0.007504
AU2660   AU        0.570099    0.621492    0.533463     0.007504
AU2661   AU        0.571416    0.657913    0.573236     0.007504
PT2662   PT        0.603579    0.621494    0.572256     0.004505
AU2663   AU        0.607658    0.659277    0.535636     0.007504
AU2664   AU        0.644164    0.620825    0.535185     0.007504
PT2665   PT        0.642762    0.657806    0.573525     0.004505
AU2666   AU        0.678910    0.618971    0.577043     0.007504
PT2667   PT        0.678470    0.657140    0.533795     0.004505
PT2668   PT        0.714253    0.618890    0.539136     0.004505
AU2669   AU        0.715391    0.656606    0.576864     0.007504
PT2670   PT        0.749414    0.617793    0.577417     0.004505
AU2671   AU        0.750653    0.656270    0.536286     0.007504
PT2672   PT        0.783703    0.615976    0.538338     0.004505
PT2673   PT        0.783596    0.653798    0.574281     0.004505
PT2674   PT        0.816890    0.614977    0.575276     0.004505
PT2675   PT        0.816932    0.654454    0.537991     0.004505
AU2676   AU        0.073882    0.690416    0.536772     0.007504
AU2677   AU        0.106941    0.694748    0.575663     0.007504
AU2678   AU        0.107715    0.731386    0.535791     0.007504
PT2679   PT        0.143086    0.695182    0.537620     0.004505
PT2680   PT        0.145035    0.731067    0.575511     0.004505
AU2681   AU        0.177984    0.692244    0.576977     0.007504
PT2682   PT        0.177290    0.734169    0.537032     0.004505
AU2683   AU        0.214249    0.695974    0.535058     0.007504
AU2684   AU        0.211888    0.732656    0.574836     0.007504
PT2685   PT        0.250660    0.694886    0.577485     0.004505
AU2686   AU        0.247162    0.734686    0.539090     0.007504
AU2687   AU        0.284574    0.695893    0.538899     0.007504
PT2688   PT        0.284576    0.733771    0.579892     0.004505
AU2689   AU        0.320751    0.693602    0.576364     0.007504
PT2690   PT        0.318250    0.733614    0.539971     0.004505
AU2691   AU        0.358353    0.693918    0.539609     0.007504
AU2692   AU        0.355150    0.733730    0.577415     0.007504
AU2693   AU        0.393494    0.693956    0.575195     0.007504
PT2694   PT        0.393109    0.732091    0.538320     0.004505
AU2695   AU        0.427015    0.694861    0.536253     0.007504
AU2696   AU        0.428793    0.733832    0.576612     0.007504
PT2697   PT        0.464461    0.694535    0.576282     0.004505
AU2698   AU        0.463902    0.732905    0.539293     0.007504
PT2699   PT        0.497945    0.693467    0.539055     0.004505
AU2700   AU        0.499415    0.733487    0.576576     0.007504
AU2701   AU        0.535707    0.695812    0.573601     0.007504
PT2702   PT        0.535519    0.732746    0.537334     0.004505
AU2703   AU        0.570929    0.695314    0.536327     0.007504
AU2704   AU        0.569969    0.732926    0.574530     0.007504
AU2705   AU        0.607673    0.694295    0.576739     0.007504
AU2706   AU        0.607164    0.733017    0.536055     0.007504
AU2707   AU        0.641625    0.696304    0.535864     0.007504
PT2708   PT        0.643493    0.733951    0.575694     0.004505
AU2709   AU        0.678643    0.695540    0.573275     0.007504
PT2710   PT        0.677667    0.732965    0.535355     0.004505
PT2711   PT        0.714198    0.695862    0.536526     0.004505
AU2712   AU        0.714087    0.731879    0.574371     0.007504
PT2713   PT        0.748790    0.694091    0.574527     0.004505
AU2714   AU        0.748829    0.729879    0.535706     0.007504
AU2715   AU        0.783690    0.694305    0.534839     0.007504
PT2716   PT        0.141416    0.769009    0.536624     0.004505
PT2717   PT        0.179182    0.769204    0.578032     0.004505
PT2718   PT        0.147694    0.833517    0.583213     0.004505
AU2719   AU        0.212554    0.771465    0.538018     0.007504
PT2720   PT        0.215171    0.809287    0.577923     0.004505
AU2721   AU        0.249001    0.770326    0.576796     0.007504
AU2722   AU        0.249257    0.807980    0.537907     0.007504
PT2723   PT        0.284074    0.771661    0.540207     0.004505
PT2724   PT        0.282716    0.808650    0.575977     0.004505
AU2725   AU        0.320934    0.770589    0.578754     0.007504
AU2726   AU        0.318852    0.809180    0.539268     0.007504
AU2727   AU        0.355475    0.772340    0.538124     0.007504
PT2728   PT        0.355361    0.809997    0.576786     0.004505
AU2729   AU        0.392301    0.772518    0.574509     0.007504
PT2730   PT        0.392495    0.811219    0.537326     0.004505
AU2731   AU        0.428228    0.773131    0.538174     0.007504
PT2732   PT        0.426426    0.810821    0.576860     0.004505
PT2733   PT        0.463091    0.772302    0.578175     0.004505
AU2734   AU        0.462210    0.809584    0.539770     0.007504
PT2735   PT        0.498194    0.771711    0.536607     0.004505
AU2736   AU        0.500233    0.810447    0.576566     0.007504
AU2737   AU        0.535515    0.773683    0.574897     0.007504
AU2738   AU        0.535301    0.808284    0.536656     0.007504
PT2739   PT        0.571529    0.771104    0.537801     0.004505
AU2740   AU        0.572391    0.809674    0.573604     0.007504
AU2741   AU        0.607183    0.771851    0.574309     0.007504
PT2742   PT        0.606545    0.808198    0.534913     0.004505
AU2743   AU        0.642163    0.771825    0.537959     0.007504
PT2744   PT        0.642727    0.807499    0.575708     0.004505
AU2745   AU        0.679469    0.770741    0.575872     0.007504
PT2746   PT        0.679607    0.807899    0.535365     0.004505
PT2747   PT        0.713239    0.768416    0.536187     0.004505
PT2748   PT        0.216023    0.845593    0.535584     0.004505
PT2749   PT        0.249881    0.844564    0.577320     0.004505
AU2750   AU        0.249708    0.883973    0.539988     0.007504
PT2751   PT        0.283917    0.846806    0.536648     0.004505
PT2752   PT        0.285020    0.882268    0.576763     0.004505
AU2753   AU        0.320855    0.846289    0.576411     0.007504
PT2754   PT        0.317898    0.882189    0.538522     0.004505
PT2755   PT        0.356330    0.846201    0.537943     0.004505
PT2756   PT        0.353767    0.883367    0.579907     0.004505
AU2757   AU        0.390782    0.847696    0.579665     0.007504
PT2758   PT        0.392402    0.885503    0.537677     0.004505
AU2759   AU        0.428907    0.847821    0.535676     0.007504
PT2760   PT        0.427644    0.883188    0.575357     0.004505
AU2761   AU        0.463747    0.847475    0.577462     0.007504
AU2762   AU        0.462845    0.882748    0.538709     0.007504
AU2763   AU        0.498506    0.846083    0.537163     0.007504
AU2764   AU        0.499570    0.882685    0.576721     0.007504
PT2765   PT        0.535987    0.846269    0.574170     0.004505
PT2766   PT        0.536951    0.880940    0.535942     0.004505
PT2767   PT        0.572416    0.846996    0.533623     0.004505
PT2768   PT        0.571155    0.882643    0.575319     0.004505
PT2769   PT        0.605896    0.846837    0.574252     0.004505
PT2770   PT        0.606154    0.882852    0.535609     0.004505
PT2771   PT        0.642314    0.846612    0.536673     0.004505
PT2772   PT        0.430223    0.921610    0.536222     0.004505
AU2773   AU        0.321000    0.040450    0.614485     0.007504
PT2774   PT        0.357185    0.040871    0.652809     0.004505
PT2775   PT        0.393854    0.041217    0.616930     0.004505
PT2776   PT        0.428640    0.042086    0.652833     0.004505
PT2777   PT        0.462039    0.040602    0.615446     0.004505
PT2778   PT        0.499285    0.040103    0.651637     0.004505
PT2779   PT        0.537111    0.040393    0.616288     0.004505
PT2780   PT        0.178894    0.118498    0.615898     0.004505
AU2781   AU        0.215197    0.117515    0.652624     0.007504
PT2782   PT        0.248712    0.080465    0.652459     0.004505
PT2783   PT        0.249554    0.115994    0.613878     0.004505
PT2784   PT        0.285456    0.078308    0.613787     0.004505
AU2785   AU        0.286866    0.115892    0.652455     0.007504
AU2786   AU        0.321578    0.077449    0.653036     0.007504
PT2787   PT        0.320882    0.115423    0.614809     0.004505
PT2788   PT        0.356438    0.077008    0.615574     0.004505
PT2789   PT        0.356953    0.114366    0.652023     0.004505
PT2790   PT        0.391260    0.077843    0.653967     0.004505
AU2791   AU        0.393451    0.115974    0.614329     0.007504
PT2792   PT        0.428044    0.077283    0.614614     0.004505
PT2793   PT        0.427859    0.114772    0.652670     0.004505
PT2794   PT        0.463042    0.079040    0.653799     0.004505
AU2795   AU        0.463675    0.114417    0.614885     0.007504
PT2796   PT        0.499215    0.077193    0.616166     0.004505
AU2797   AU        0.499173    0.113157    0.652835     0.007504
PT2798   PT        0.533968    0.078138    0.652713     0.004505
AU2799   AU        0.537540    0.114328    0.613536     0.007504
PT2800   PT        0.571481    0.078951    0.614756     0.004505
PT2801   PT        0.570867    0.116497    0.652903     0.004505
PT2802   PT        0.607562    0.080118    0.652262     0.004505
PT2803   PT        0.606882    0.116695    0.613989     0.004505
PT2804   PT        0.643327    0.117295    0.653792     0.004505
PT2805   PT        0.677631    0.117402    0.614523     0.004505
PT2806   PT        0.108577    0.192908    0.615441     0.004505
PT2807   PT        0.144717    0.155467    0.615240     0.004505
PT2808   PT        0.143394    0.193909    0.653773     0.004505
PT2809   PT        0.179416    0.155309    0.654317     0.004505
AU2810   AU        0.178294    0.192255    0.617501     0.007504
AU2811   AU        0.213610    0.154092    0.614115     0.007504
PT2812   PT        0.215027    0.192678    0.653526     0.004505
AU2813   AU        0.250054    0.154601    0.653582     0.007504
AU2814   AU        0.249450    0.190973    0.615777     0.007504
PT2815   PT        0.284999    0.152320    0.614239     0.004505
PT2816   PT        0.284850    0.191216    0.652440     0.004505
AU2817   AU        0.320851    0.154313    0.653855     0.007504
PT2818   PT        0.319744    0.191309    0.614223     0.004505
AU2819   AU        0.358343    0.154232    0.614897     0.007504
AU2820   AU        0.358573    0.191860    0.654946     0.007504
PT2821   PT        0.393567    0.153841    0.654488     0.004505
AU2822   AU        0.393746    0.192423    0.615177     0.007504
AU2823   AU        0.429508    0.152248    0.615202     0.007504
PT2824   PT        0.430372    0.192966    0.654446     0.004505
AU2825   AU        0.464306    0.153012    0.653474     0.007504
AU2826   AU        0.464032    0.191397    0.616198     0.007504
AU2827   AU        0.499865    0.151826    0.615999     0.007504
AU2828   AU        0.498892    0.189743    0.653212     0.007504
AU2829   AU        0.536226    0.152622    0.652461     0.007504
AU2830   AU        0.535055    0.190311    0.613423     0.007504
AU2831   AU        0.571278    0.150590    0.612214     0.007504
PT2832   PT        0.571641    0.190642    0.654492     0.004505
PT2833   PT        0.606252    0.154432    0.654238     0.004505
AU2834   AU        0.607904    0.191046    0.616335     0.007504
AU2835   AU        0.642963    0.152855    0.615570     0.007504
AU2836   AU        0.642574    0.191632    0.652630     0.007504
PT2837   PT        0.678083    0.154143    0.652688     0.004505
AU2838   AU        0.679056    0.192734    0.615383     0.007504
PT2839   PT        0.713403    0.154553    0.616092     0.004505
PT2840   PT        0.712135    0.192564    0.653313     0.004505
PT2841   PT        0.746507    0.191925    0.615412     0.004505
PT2842   PT        0.072517    0.270209    0.652238     0.004505
AU2843   AU        0.108921    0.231695    0.651262     0.007504
PT2844   PT        0.108668    0.271129    0.615085     0.004505
PT2845   PT        0.143553    0.231039    0.616762     0.004505
AU2846   AU        0.143672    0.270307    0.652455     0.007504
AU2847   AU        0.178977    0.229562    0.653976     0.007504
AU2848   AU        0.179544    0.266589    0.615723     0.007504
PT2849   PT        0.214913    0.228937    0.614211     0.004505
AU2850   AU        0.214242    0.268310    0.653272     0.007504
PT2851   PT        0.248171    0.232297    0.656877     0.004505
AU2852   AU        0.248408    0.267885    0.614693     0.007504
AU2853   AU        0.283342    0.230381    0.615883     0.007504
AU2854   AU        0.286654    0.270071    0.655836     0.007504
PT2855   PT        0.322004    0.229913    0.655444     0.004505
PT2856   PT        0.318799    0.267844    0.615922     0.004505
AU2857   AU        0.359030    0.228440    0.615798     0.007504
AU2858   AU        0.357510    0.268843    0.654045     0.007504
AU2859   AU        0.392346    0.229770    0.655723     0.007504
AU2860   AU        0.394310    0.267480    0.614983     0.007504
AU2861   AU        0.429137    0.227725    0.614062     0.007504
AU2862   AU        0.429040    0.268401    0.650857     0.007504
AU2863   AU        0.464399    0.230317    0.652536     0.007504
AU2864   AU        0.466125    0.268794    0.613449     0.007504
AU2865   AU        0.501777    0.228387    0.616929     0.007504
AU2866   AU        0.500733    0.269119    0.653540     0.007504
AU2867   AU        0.538545    0.228430    0.652588     0.007504
PT2868   PT        0.533162    0.270944    0.614482     0.004505
PT2869   PT        0.573388    0.226628    0.614049     0.004505
PT2870   PT        0.573330    0.268525    0.654973     0.004505
AU2871   AU        0.608839    0.228597    0.653903     0.007504
AU2872   AU        0.606390    0.267222    0.616891     0.007504
PT2873   PT        0.643652    0.230520    0.615374     0.004505
AU2874   AU        0.643116    0.268013    0.653651     0.007504
PT2875   PT        0.677868    0.229174    0.653170     0.004505
AU2876   AU        0.679027    0.266474    0.615019     0.007504
PT2877   PT        0.715015    0.229864    0.612857     0.004505
AU2878   AU        0.713204    0.269749    0.653621     0.007504
PT2879   PT        0.747470    0.230118    0.652384     0.004505
AU2880   AU        0.748000    0.268326    0.616004     0.007504
PT2881   PT        0.784028    0.268866    0.654022     0.004505
AU2882   AU        0.037059    0.345817    0.614744     0.007504
PT2883   PT        0.073055    0.308297    0.614922     0.004505
PT2884   PT        0.071840    0.346797    0.653729     0.004505
AU2885   AU        0.107112    0.306399    0.651444     0.007504
AU2886   AU        0.106266    0.345168    0.614516     0.007504
AU2887   AU        0.142256    0.307303    0.615387     0.007504
AU2888   AU        0.141412    0.344157    0.653448     0.007504
PT2889   PT        0.179012    0.305496    0.655765     0.004505
AU2890   AU        0.177708    0.346398    0.616829     0.007504
PT2891   PT        0.211552    0.308861    0.615975     0.004505
PT2892   PT        0.211575    0.347220    0.655398     0.004505
AU2893   AU        0.249159    0.307440    0.653819     0.007504
PT2894   PT        0.248373    0.344197    0.618614     0.004505
AU2895   AU        0.283330    0.305547    0.613811     0.007504
PT2896   PT        0.284964    0.345843    0.653397     0.004505
AU2897   AU        0.321850    0.307832    0.652850     0.007504
PT2898   PT        0.320710    0.346485    0.614205     0.004505
AU2899   AU        0.356738    0.308150    0.614414     0.007504
AU2900   AU        0.356628    0.345382    0.654659     0.007504
AU2901   AU        0.391036    0.306380    0.652778     0.007504
AU2902   AU        0.393207    0.345552    0.614287     0.007504
AU2903   AU        0.426189    0.307897    0.615484     0.007504
AU2904   AU        0.428161    0.346132    0.654387     0.007504
PT2905   PT        0.464182    0.309681    0.652658     0.004505
AU2906   AU        0.462585    0.347669    0.612874     0.007504
AU2907   AU        0.498325    0.308692    0.615060     0.007504
PT2908   PT        0.499119    0.348368    0.653925     0.004505
PT2909   PT        0.535512    0.307568    0.654535     0.004505
AU2910   AU        0.535835    0.346026    0.617139     0.007504
AU2911   AU        0.571031    0.305171    0.613735     0.007504
AU2912   AU        0.572297    0.346694    0.655087     0.007504
PT2913   PT        0.609689    0.306540    0.655052     0.004505
AU2914   AU        0.606095    0.345609    0.612937     0.007504
PT2915   PT        0.642728    0.304687    0.611573     0.004505
AU2916   AU        0.643707    0.347579    0.656291     0.007504
AU2917   AU        0.680699    0.309546    0.654325     0.007504
AU2918   AU        0.677898    0.344538    0.614741     0.007504
PT2919   PT        0.713428    0.309231    0.613866     0.004505
PT2920   PT        0.714978    0.347194    0.651865     0.004505
AU2921   AU        0.747317    0.306910    0.650695     0.007504
PT2922   PT        0.751280    0.346043    0.615442     0.004505
PT2923   PT        0.785039    0.309732    0.613012     0.004505
AU2924   AU        0.785496    0.347400    0.652200     0.007504
PT2925   PT        0.819319    0.345193    0.612705     0.004505
PT2926   PT        0.039854    0.384976    0.653906     0.004505
PT2927   PT        0.037121    0.423125    0.617528     0.004505
PT2928   PT        0.072625    0.383015    0.614128     0.004505
PT2929   PT        0.071507    0.424319    0.655264     0.004505
AU2930   AU        0.105878    0.385460    0.654258     0.007504
AU2931   AU        0.105635    0.423266    0.617143     0.007504
AU2932   AU        0.142914    0.382880    0.616832     0.007504
AU2933   AU        0.142303    0.422247    0.655678     0.007504
AU2934   AU        0.178189    0.385013    0.654465     0.007504
AU2935   AU        0.176253    0.423145    0.616486     0.007504
PT2936   PT        0.212672    0.384214    0.616004     0.004505
AU2937   AU        0.213951    0.423158    0.653400     0.007504
AU2938   AU        0.248430    0.385041    0.652367     0.007504
AU2939   AU        0.249741    0.424630    0.615456     0.007504
PT2940   PT        0.285175    0.385520    0.616605     0.004505
AU2941   AU        0.285580    0.421825    0.653261     0.007504
PT2942   PT        0.318193    0.384423    0.652527     0.004505
AU2943   AU        0.320343    0.424660    0.614694     0.007504
AU2944   AU        0.356838    0.387214    0.616323     0.007504
AU2945   AU        0.359287    0.426028    0.653167     0.007504
PT2946   PT        0.392115    0.382794    0.652334     0.004505
AU2947   AU        0.394394    0.423653    0.615131     0.007504
AU2948   AU        0.428280    0.386911    0.613900     0.007504
AU2949   AU        0.430012    0.421842    0.655665     0.007504
AU2950   AU        0.462700    0.381982    0.654439     0.007504
AU2951   AU        0.464905    0.422703    0.614546     0.007504
AU2952   AU        0.500245    0.382498    0.614007     0.007504
AU2953   AU        0.500883    0.421666    0.650065     0.007504
AU2954   AU        0.535665    0.385189    0.654081     0.007504
AU2955   AU        0.535122    0.422369    0.614920     0.007504
AU2956   AU        0.570728    0.384640    0.614660     0.007504
AU2957   AU        0.570397    0.422690    0.653426     0.007504
AU2958   AU        0.607414    0.384916    0.652184     0.007504
AU2959   AU        0.607626    0.425704    0.616107     0.007504
PT2960   PT        0.642933    0.385818    0.615287     0.004505
AU2961   AU        0.643497    0.423338    0.656424     0.007504
AU2962   AU        0.678527    0.382945    0.653708     0.007504
PT2963   PT        0.677125    0.421026    0.616286     0.004505
AU2964   AU        0.716889    0.384486    0.615611     0.007504
AU2965   AU        0.716022    0.422783    0.653562     0.007504
AU2966   AU        0.751311    0.385554    0.654902     0.007504
PT2967   PT        0.750395    0.422749    0.614847     0.004505
PT2968   PT        0.785203    0.384552    0.616211     0.004505
AU2969   AU        0.785956    0.425408    0.651780     0.007504
PT2970   PT        0.819106    0.384603    0.651029     0.004505
PT2971   PT        0.819064    0.424313    0.614630     0.004505
PT2972   PT        0.037938    0.464250    0.653581     0.004505
PT2973   PT        0.037261    0.501952    0.615001     0.004505
AU2974   AU        0.071996    0.462078    0.616358     0.007504
AU2975   AU        0.072389    0.502689    0.653047     0.007504
PT2976   PT        0.106861    0.461673    0.654267     0.004505
AU2977   AU        0.105560    0.501267    0.615303     0.007504
AU2978   AU        0.140826    0.462625    0.613440     0.007504
PT2979   PT        0.140644    0.498986    0.652223     0.004505
AU2980   AU        0.177321    0.461444    0.655831     0.007504
PT2981   PT        0.175344    0.503925    0.616816     0.004505
AU2982   AU        0.215684    0.461271    0.615980     0.007504
AU2983   AU        0.214105    0.499419    0.654395     0.007504
AU2984   AU        0.249070    0.462318    0.654690     0.007504
AU2985   AU        0.249599    0.501351    0.615424     0.007504
AU2986   AU        0.283414    0.462458    0.616208     0.007504
AU2987   AU        0.284401    0.502470    0.654289     0.007504
AU2988   AU        0.320406    0.461348    0.653386     0.007504
PT2989   PT        0.318531    0.498972    0.615169     0.004505
AU2990   AU        0.356607    0.463931    0.615945     0.007504
AU2991   AU        0.355847    0.501088    0.653340     0.007504
AU2992   AU        0.393284    0.465027    0.653414     0.007504
AU2993   AU        0.391528    0.503086    0.614830     0.007504
AU2994   AU        0.429865    0.460005    0.616059     0.007504
AU2995   AU        0.427585    0.501929    0.653202     0.007504
PT2996   PT        0.465552    0.458883    0.650614     0.004505
AU2997   AU        0.462470    0.500576    0.615840     0.007504
AU2998   AU        0.499956    0.460635    0.614280     0.007504
AU2999   AU        0.498239    0.499586    0.652688     0.007504
PT3000   PT        0.536462    0.463987    0.654768     0.004505
PT3001   PT        0.534920    0.501833    0.617639     0.004505
AU3002   AU        0.568790    0.462231    0.614955     0.007504
AU3003   AU        0.571547    0.501052    0.655854     0.007504
AU3004   AU        0.607858    0.462337    0.654919     0.007504
AU3005   AU        0.605518    0.496798    0.614731     0.007504
AU3006   AU        0.643513    0.460730    0.616836     0.007504
PT3007   PT        0.644309    0.498879    0.655159     0.004505
AU3008   AU        0.678370    0.459988    0.653279     0.007504
PT3009   PT        0.679859    0.499485    0.616478     0.004505
AU3010   AU        0.716316    0.460543    0.615492     0.007504
PT3011   PT        0.715653    0.498874    0.654572     0.004505
PT3012   PT        0.750701    0.461639    0.655011     0.004505
PT3013   PT        0.748762    0.499951    0.615004     0.004505
PT3014   PT        0.782388    0.463098    0.614226     0.004505
PT3015   PT        0.782808    0.499351    0.652473     0.004505
AU3016   AU        0.818237    0.461816    0.653500     0.007504
PT3017   PT        0.815661    0.500218    0.613190     0.004505
AU3018   AU        0.037578    0.538622    0.653179     0.007504
PT3019   PT        0.038879    0.579206    0.617461     0.004505
PT3020   PT        0.071075    0.538878    0.615502     0.004505
PT3021   PT        0.072547    0.576429    0.653617     0.004505
PT3022   PT        0.106744    0.540566    0.653902     0.004505
PT3023   PT        0.105472    0.577027    0.613924     0.004505
PT3024   PT        0.140611    0.539899    0.614110     0.004505
PT3025   PT        0.140492    0.580062    0.653941     0.004505
AU3026   AU        0.177131    0.538970    0.655682     0.007504
AU3027   AU        0.177032    0.578728    0.617263     0.007504
AU3028   AU        0.211952    0.539164    0.615410     0.007504
AU3029   AU        0.214311    0.576103    0.653532     0.007504
PT3030   PT        0.250597    0.537618    0.655172     0.004505
PT3031   PT        0.250533    0.578892    0.615380     0.004505
PT3032   PT        0.287872    0.538788    0.616392     0.004505
AU3033   AU        0.286663    0.578766    0.653156     0.007504
AU3034   AU        0.321537    0.541020    0.654772     0.007504
AU3035   AU        0.320957    0.579059    0.613239     0.007504
AU3036   AU        0.355563    0.538673    0.614723     0.007504
AU3037   AU        0.357347    0.579546    0.652570     0.007504
PT3038   PT        0.393689    0.539434    0.653867     0.004505
AU3039   AU        0.391418    0.579520    0.615285     0.007504
AU3040   AU        0.425995    0.538722    0.612009     0.007504
AU3041   AU        0.427896    0.578019    0.653326     0.007504
AU3042   AU        0.463240    0.539284    0.655086     0.007504
AU3043   AU        0.463259    0.577331    0.614246     0.007504
PT3044   PT        0.498290    0.541553    0.616223     0.004505
AU3045   AU        0.498363    0.578553    0.652779     0.007504
PT3046   PT        0.534850    0.539712    0.656285     0.004505
AU3047   AU        0.534596    0.576167    0.618771     0.007504
AU3048   AU        0.571022    0.539742    0.618519     0.007504
PT3049   PT        0.572032    0.578598    0.655642     0.004505
PT3050   PT        0.607459    0.535390    0.655873     0.004505
PT3051   PT        0.608439    0.578091    0.618730     0.004505
PT3052   PT        0.642294    0.538629    0.616136     0.004505
AU3053   AU        0.644794    0.580410    0.655837     0.007504
AU3054   AU        0.679726    0.542756    0.653880     0.007504
AU3055   AU        0.680968    0.578327    0.615821     0.007504
PT3056   PT        0.715924    0.537671    0.614243     0.004505
PT3057   PT        0.716197    0.578253    0.653525     0.004505
PT3058   PT        0.748070    0.537433    0.652103     0.004505
PT3059   PT        0.749702    0.578562    0.613508     0.004505
AU3060   AU        0.783032    0.539556    0.612843     0.007504
AU3061   AU        0.783198    0.577645    0.652771     0.007504
PT3062   PT        0.815370    0.538628    0.649433     0.004505
AU3063   AU        0.818121    0.577897    0.614262     0.007504
AU3064   AU        0.072758    0.616564    0.614461     0.007504
PT3065   PT        0.072725    0.653380    0.653943     0.004505
PT3066   PT        0.106942    0.616232    0.654754     0.004505
AU3067   AU        0.106460    0.655805    0.614626     0.007504
PT3068   PT        0.141334    0.617620    0.615767     0.004505
AU3069   AU        0.142801    0.654397    0.654311     0.007504
PT3070   PT        0.178264    0.617312    0.655114     0.004505
PT3071   PT        0.176615    0.655733    0.615430     0.004505
PT3072   PT        0.213184    0.617353    0.614519     0.004505
PT3073   PT        0.213986    0.654232    0.654050     0.004505
PT3074   PT        0.250473    0.617119    0.654007     0.004505
PT3075   PT        0.249224    0.655446    0.615969     0.004505
AU3076   AU        0.284590    0.618440    0.616231     0.007504
AU3077   AU        0.283748    0.655310    0.653637     0.007504
AU3078   AU        0.318584    0.617214    0.653815     0.007504
AU3079   AU        0.320501    0.656724    0.615393     0.007504
AU3080   AU        0.355472    0.618864    0.614107     0.007504
AU3081   AU        0.356955    0.654838    0.657031     0.007504
AU3082   AU        0.392025    0.617330    0.652651     0.007504
PT3083   PT        0.392966    0.657308    0.613595     0.004505
PT3084   PT        0.427146    0.617689    0.616386     0.004505
AU3085   AU        0.429375    0.656152    0.654691     0.007504
AU3086   AU        0.464157    0.616168    0.653212     0.007504
AU3087   AU        0.464299    0.654451    0.614511     0.007504
AU3088   AU        0.498311    0.617215    0.612456     0.007504
PT3089   PT        0.497863    0.653623    0.655343     0.004505
AU3090   AU        0.535827    0.614066    0.654560     0.007504
AU3091   AU        0.536644    0.655931    0.613140     0.007504
AU3092   AU        0.572262    0.617193    0.614046     0.007504
AU3093   AU        0.569645    0.655478    0.653082     0.007504
AU3094   AU        0.605718    0.619663    0.654347     0.007504
AU3095   AU        0.608099    0.655423    0.613613     0.007504
PT3096   PT        0.642437    0.619745    0.615311     0.004505
AU3097   AU        0.643753    0.657888    0.652575     0.007504
AU3098   AU        0.678937    0.616716    0.654348     0.007504
PT3099   PT        0.678050    0.657993    0.612929     0.004505
AU3100   AU        0.713927    0.616391    0.614218     0.007504
PT3101   PT        0.710565    0.655097    0.651923     0.004505
PT3102   PT        0.748928    0.617312    0.651680     0.004505
PT3103   PT        0.748393    0.655848    0.615156     0.004505
PT3104   PT        0.783162    0.616089    0.615363     0.004505
PT3105   PT        0.783049    0.656882    0.653613     0.004505
AU3106   AU        0.108137    0.693294    0.653925     0.007504
PT3107   PT        0.109818    0.729941    0.614169     0.004505
AU3108   AU        0.142041    0.694711    0.615398     0.007504
PT3109   PT        0.143471    0.731883    0.653189     0.004505
AU3110   AU        0.177568    0.694620    0.652667     0.007504
PT3111   PT        0.178631    0.730234    0.616402     0.004505
AU3112   AU        0.212271    0.692815    0.615825     0.007504
PT3113   PT        0.214343    0.731191    0.653493     0.004505
PT3114   PT        0.248684    0.694893    0.652842     0.004505
PT3115   PT        0.247974    0.731375    0.613762     0.004505
PT3116   PT        0.284849    0.694166    0.613643     0.004505
AU3117   AU        0.284782    0.734160    0.654647     0.007504
PT3118   PT        0.320270    0.694991    0.653280     0.004505
PT3119   PT        0.319484    0.731231    0.615406     0.004505
AU3120   AU        0.356844    0.696091    0.612901     0.007504
AU3121   AU        0.356963    0.734509    0.651448     0.007504
PT3122   PT        0.391769    0.692974    0.655127     0.004505
AU3123   AU        0.393370    0.734014    0.613487     0.007504
AU3124   AU        0.428188    0.693685    0.615817     0.007504
AU3125   AU        0.428076    0.733884    0.653707     0.007504
PT3126   PT        0.463143    0.696109    0.652520     0.004505
AU3127   AU        0.465260    0.732449    0.615541     0.007504
AU3128   AU        0.500404    0.693470    0.614090     0.007504
PT3129   PT        0.499165    0.732196    0.652027     0.004505
PT3130   PT        0.532954    0.693948    0.653114     0.004505
PT3131   PT        0.533252    0.733359    0.614294     0.004505
AU3132   AU        0.572832    0.693581    0.617586     0.007504
AU3133   AU        0.570393    0.732135    0.654638     0.007504
PT3134   PT        0.608604    0.693560    0.653749     0.004505
PT3135   PT        0.605305    0.734865    0.613963     0.004505
PT3136   PT        0.643163    0.695562    0.613210     0.004505
AU3137   AU        0.642392    0.732447    0.652736     0.007504
AU3138   AU        0.677921    0.694808    0.652706     0.007504
PT3139   PT        0.677314    0.732591    0.614932     0.004505
PT3140   PT        0.712851    0.694977    0.614682     0.004505
AU3141   AU        0.711706    0.732197    0.652233     0.007504
PT3142   PT        0.746233    0.691199    0.651923     0.004505
AU3143   AU        0.748680    0.731248    0.612604     0.007504
PT3144   PT        0.143820    0.767887    0.613870     0.004505
PT3145   PT        0.178490    0.769527    0.652696     0.004505
PT3146   PT        0.178817    0.809215    0.615511     0.004505
PT3147   PT        0.213119    0.769329    0.616143     0.004505
PT3148   PT        0.214168    0.808405    0.652611     0.004505
PT3149   PT        0.248614    0.770783    0.652792     0.004505
PT3150   PT        0.249030    0.806317    0.615544     0.004505
PT3151   PT        0.284680    0.770666    0.617811     0.004505
AU3152   AU        0.283693    0.807515    0.651887     0.007504
PT3153   PT        0.320522    0.769066    0.654931     0.004505
PT3154   PT        0.319967    0.810629    0.615733     0.004505
AU3155   AU        0.357096    0.771782    0.614643     0.007504
PT3156   PT        0.355750    0.807939    0.653385     0.004505
AU3157   AU        0.392599    0.771621    0.652547     0.007504
AU3158   AU        0.392569    0.807760    0.615303     0.007504
PT3159   PT        0.427264    0.770878    0.615770     0.004505
PT3160   PT        0.428517    0.807123    0.653938     0.004505
PT3161   PT        0.463641    0.769282    0.654035     0.004505
PT3162   PT        0.463842    0.808749    0.615121     0.004505
PT3163   PT        0.501061    0.771026    0.612488     0.004505
PT3164   PT        0.498146    0.807809    0.652767     0.004505
AU3165   AU        0.536725    0.771069    0.653585     0.007504
AU3166   AU        0.536011    0.808280    0.614984     0.007504
AU3167   AU        0.571350    0.770723    0.615073     0.007504
PT3168   PT        0.572040    0.807526    0.651579     0.004505
PT3169   PT        0.605577    0.768878    0.653792     0.004505
PT3170   PT        0.605651    0.808001    0.613367     0.004505
AU3171   AU        0.641791    0.770507    0.614980     0.007504
PT3172   PT        0.640784    0.805066    0.651926     0.004505
AU3173   AU        0.677452    0.769012    0.652107     0.007504
PT3174   PT        0.677563    0.806025    0.613489     0.004505
AU3175   AU        0.712416    0.768197    0.615053     0.007504
PT3176   PT        0.248048    0.842941    0.653161     0.004505
PT3177   PT        0.284874    0.845216    0.614666     0.004505
PT3178   PT        0.321534    0.846516    0.653494     0.004505
AU3179   AU        0.319701    0.881647    0.616045     0.007504
AU3180   AU        0.356208    0.845873    0.615759     0.007504
PT3181   PT        0.356179    0.882459    0.652253     0.004505
PT3182   PT        0.394097    0.845890    0.653119     0.004505
PT3183   PT        0.391670    0.882529    0.616261     0.004505
AU3184   AU        0.427791    0.846540    0.615340     0.007504
AU3185   AU        0.427027    0.882951    0.652617     0.007504
AU3186   AU        0.464818    0.846596    0.652083     0.007504
AU3187   AU        0.463749    0.882774    0.615585     0.007504
PT3188   PT        0.499995    0.847434    0.615571     0.004505
PT3189   PT        0.499429    0.883835    0.652205     0.004505
PT3190   PT        0.533864    0.845924    0.651544     0.004505
PT3191   PT        0.535318    0.882441    0.613825     0.004505
AU3192   AU        0.568816    0.845807    0.612806     0.007504
AU3193   AU        0.604917    0.845167    0.653628     0.007504
AU3194   AU        0.250885    0.117415    0.691559     0.007504
PT3195   PT        0.284625    0.116769    0.729420     0.004505
AU3196   AU        0.321093    0.116877    0.693268     0.007504
PT3197   PT        0.357433    0.079162    0.689672     0.004505
PT3198   PT        0.357039    0.115997    0.728954     0.004505
PT3199   PT        0.392369    0.080377    0.727855     0.004505
PT3200   PT        0.393628    0.115303    0.690499     0.004505
PT3201   PT        0.427405    0.079041    0.691586     0.004505
PT3202   PT        0.427812    0.117418    0.729681     0.004505
PT3203   PT        0.462726    0.079172    0.729190     0.004505
PT3204   PT        0.463323    0.116493    0.691939     0.004505
PT3205   PT        0.499341    0.078820    0.690164     0.004505
PT3206   PT        0.499366    0.116294    0.728279     0.004505
AU3207   AU        0.534419    0.115868    0.688289     0.007504
PT3208   PT        0.570320    0.117142    0.729412     0.004505
PT3209   PT        0.606882    0.115678    0.689858     0.004505
AU3210   AU        0.179515    0.193197    0.692038     0.007504
PT3211   PT        0.216115    0.155824    0.690512     0.004505
PT3212   PT        0.214510    0.192479    0.729157     0.004505
PT3213   PT        0.248901    0.154451    0.730934     0.004505
AU3214   AU        0.250442    0.192395    0.691669     0.007504
AU3215   AU        0.285181    0.154240    0.692621     0.007504
PT3216   PT        0.285755    0.193053    0.731174     0.004505
AU3217   AU        0.320977    0.154554    0.730522     0.007504
PT3218   PT        0.322382    0.190891    0.691406     0.004505
PT3219   PT        0.357237    0.153063    0.691614     0.004505
AU3220   AU        0.356317    0.190816    0.730038     0.007504
AU3221   AU        0.393044    0.153391    0.729270     0.007504
AU3222   AU        0.389647    0.190833    0.693659     0.007504
PT3223   PT        0.429814    0.153848    0.692362     0.004505
PT3224   PT        0.427385    0.190089    0.730803     0.004505
AU3225   AU        0.464192    0.153338    0.728794     0.007504
PT3226   PT        0.465039    0.191303    0.693352     0.004505
PT3227   PT        0.499261    0.154339    0.692237     0.004505
PT3228   PT        0.500963    0.192633    0.729040     0.004505
PT3229   PT        0.537097    0.154168    0.728917     0.004505
AU3230   AU        0.534721    0.191105    0.692524     0.007504
PT3231   PT        0.571337    0.154585    0.692360     0.004505
PT3232   PT        0.573412    0.194224    0.729505     0.004505
AU3233   AU        0.606384    0.153727    0.728705     0.007504
AU3234   AU        0.607459    0.192285    0.692545     0.007504
AU3235   AU        0.642274    0.155424    0.690679     0.007504
PT3236   PT        0.641785    0.192599    0.729777     0.004505
PT3237   PT        0.679504    0.192264    0.690116     0.004505
PT3238   PT        0.108747    0.269468    0.689597     0.004505
PT3239   PT        0.143382    0.232585    0.689237     0.004505
AU3240   AU        0.143245    0.269430    0.729783     0.007504
PT3241   PT        0.180187    0.232768    0.729276     0.004505
PT3242   PT        0.177944    0.268597    0.692170     0.004505
PT3243   PT        0.213075    0.230379    0.691982     0.004505
AU3244   AU        0.213258    0.269835    0.729948     0.007504
PT3245   PT        0.249035    0.230663    0.728451     0.004505
AU3246   AU        0.249441    0.269024    0.693266     0.007504
AU3247   AU        0.285556    0.229172    0.694071     0.007504
AU3248   AU        0.284569    0.269163    0.731428     0.007504
AU3249   AU        0.321005    0.228869    0.730059     0.007504
AU3250   AU        0.320952    0.268322    0.692438     0.007504
PT3251   PT        0.357633    0.230128    0.692262     0.004505
PT3252   PT        0.355662    0.266974    0.731799     0.004505
PT3253   PT        0.392252    0.228192    0.731120     0.004505
AU3254   AU        0.392357    0.266736    0.692538     0.007504
AU3255   AU        0.426504    0.229426    0.693059     0.007504
PT3256   PT        0.428273    0.268185    0.729375     0.004505
PT3257   PT        0.463099    0.228456    0.730934     0.004505
AU3258   AU        0.464593    0.267734    0.690207     0.007504
PT3259   PT        0.498362    0.230407    0.692224     0.004505
AU3260   AU        0.498829    0.266455    0.731582     0.007504
PT3261   PT        0.534981    0.228685    0.731124     0.004505
AU3262   AU        0.535243    0.268814    0.693144     0.007504
PT3263   PT        0.572684    0.229296    0.690675     0.004505
AU3264   AU        0.571277    0.268005    0.729749     0.007504
PT3265   PT        0.607194    0.230015    0.730077     0.004505
AU3266   AU        0.608589    0.267897    0.693211     0.007504
AU3267   AU        0.643216    0.229805    0.694101     0.007504
PT3268   PT        0.643235    0.268695    0.729206     0.004505
PT3269   PT        0.678659    0.231908    0.728790     0.004505
PT3270   PT        0.678810    0.269159    0.692647     0.004505
AU3271   AU        0.712400    0.231703    0.690412     0.007504
PT3272   PT        0.713014    0.270133    0.729562     0.004505
AU3273   AU        0.748041    0.269987    0.690763     0.007504
PT3274   PT        0.109053    0.307287    0.730850     0.004505
PT3275   PT        0.107483    0.347973    0.691784     0.004505
PT3276   PT        0.142690    0.308379    0.693056     0.004505
AU3277   AU        0.142733    0.348471    0.730802     0.007504
AU3278   AU        0.179916    0.305877    0.728700     0.007504
PT3279   PT        0.179204    0.344989    0.692300     0.004505
PT3280   PT        0.214174    0.305803    0.692812     0.004505
AU3281   AU        0.212773    0.346090    0.731757     0.007504
PT3282   PT        0.248619    0.306761    0.729009     0.004505
PT3283   PT        0.247766    0.344720    0.691754     0.004505
AU3284   AU        0.284308    0.306252    0.692765     0.007504
PT3285   PT        0.286404    0.345465    0.731341     0.004505
AU3286   AU        0.320644    0.306583    0.729931     0.007504
AU3287   AU        0.319470    0.347100    0.689577     0.007504
AU3288   AU        0.357680    0.306432    0.691563     0.007504
AU3289   AU        0.356724    0.344588    0.733214     0.007504
PT3290   PT        0.393199    0.305365    0.729441     0.004505
AU3291   AU        0.393867    0.342755    0.691789     0.007504
AU3292   AU        0.430286    0.307011    0.691657     0.007504
AU3293   AU        0.427825    0.343969    0.731341     0.007504
AU3294   AU        0.465476    0.307340    0.731789     0.007504
AU3295   AU        0.464980    0.346788    0.692139     0.007504
PT3296   PT        0.498534    0.306737    0.690014     0.004505
AU3297   AU        0.501304    0.344791    0.731146     0.007504
AU3298   AU        0.535377    0.305077    0.729128     0.007504
AU3299   AU        0.535553    0.345243    0.692673     0.007504
PT3300   PT        0.572188    0.304703    0.693334     0.004505
AU3301   AU        0.571706    0.344338    0.731157     0.007504
PT3302   PT        0.607258    0.307192    0.732393     0.004505
PT3303   PT        0.606687    0.347658    0.692597     0.004505
AU3304   AU        0.643771    0.307163    0.693485     0.007504
AU3305   AU        0.643593    0.345325    0.729531     0.007504
AU3306   AU        0.679656    0.307721    0.731148     0.007504
PT3307   PT        0.679641    0.345799    0.693199     0.004505
PT3308   PT        0.712421    0.306803    0.693299     0.004505
PT3309   PT        0.714732    0.346734    0.728599     0.004505
PT3310   PT        0.747121    0.307088    0.727897     0.004505
AU3311   AU        0.749647    0.345239    0.690352     0.007504
PT3312   PT        0.071982    0.387552    0.693177     0.004505
PT3313   PT        0.071279    0.425767    0.728977     0.004505
PT3314   PT        0.107108    0.386722    0.729448     0.004505
AU3315   AU        0.107664    0.422995    0.691799     0.007504
PT3316   PT        0.141757    0.383934    0.690401     0.004505
AU3317   AU        0.142725    0.423998    0.730016     0.007504
PT3318   PT        0.179546    0.384676    0.730253     0.004505
AU3319   AU        0.178552    0.422038    0.692835     0.007504
PT3320   PT        0.213927    0.383319    0.693264     0.004505
AU3321   AU        0.213628    0.423593    0.731890     0.007504
PT3322   PT        0.250354    0.385709    0.729691     0.004505
PT3323   PT        0.247852    0.423782    0.690689     0.004505
AU3324   AU        0.285955    0.385697    0.692569     0.007504
AU3325   AU        0.285459    0.422049    0.732150     0.007504
AU3326   AU        0.321005    0.383716    0.731422     0.007504
PT3327   PT        0.320595    0.424480    0.691906     0.004505
AU3328   AU        0.354832    0.384954    0.691628     0.007504
AU3329   AU        0.356960    0.421036    0.730854     0.007504
AU3330   AU        0.391793    0.383410    0.732611     0.007504
AU3331   AU        0.393995    0.425440    0.691063     0.007504
PT3332   PT        0.426320    0.382750    0.691834     0.004505
AU3333   AU        0.429609    0.423255    0.729170     0.007504
AU3334   AU        0.464132    0.383289    0.732594     0.007504
PT3335   PT        0.465889    0.423186    0.693335     0.004505
AU3336   AU        0.501695    0.385180    0.693031     0.007504
PT3337   PT        0.500020    0.421706    0.731758     0.004505
AU3338   AU        0.536493    0.382895    0.729271     0.007504
AU3339   AU        0.535855    0.421550    0.692988     0.007504
AU3340   AU        0.572777    0.384816    0.690950     0.007504
AU3341   AU        0.570310    0.421816    0.729524     0.007504
AU3342   AU        0.606129    0.385711    0.731868     0.007504
AU3343   AU        0.609709    0.422094    0.693467     0.007504
PT3344   PT        0.642598    0.384884    0.692979     0.004505
AU3345   AU        0.643611    0.423495    0.729228     0.007504
AU3346   AU        0.679631    0.384570    0.729047     0.007504
AU3347   AU        0.681190    0.422527    0.690660     0.007504
AU3348   AU        0.715220    0.384082    0.690354     0.007504
PT3349   PT        0.713038    0.424314    0.730899     0.004505
PT3350   PT        0.748702    0.384963    0.727606     0.004505
AU3351   AU        0.749958    0.423630    0.691641     0.007504
PT3352   PT        0.784081    0.385923    0.689413     0.004505
PT3353   PT        0.782291    0.421825    0.728474     0.004505
PT3354   PT        0.073110    0.464253    0.690434     0.004505
PT3355   PT        0.072379    0.499266    0.729182     0.004505
PT3356   PT        0.107351    0.463337    0.729914     0.004505
PT3357   PT        0.108283    0.500526    0.691024     0.004505
PT3358   PT        0.140748    0.460996    0.692891     0.004505
AU3359   AU        0.142150    0.500532    0.729821     0.007504
AU3360   AU        0.178008    0.463130    0.729025     0.007504
PT3361   PT        0.177025    0.501140    0.692697     0.004505
AU3362   AU        0.213243    0.461156    0.692429     0.007504
PT3363   PT        0.213306    0.500900    0.730311     0.004505
AU3364   AU        0.249960    0.460521    0.730860     0.007504
PT3365   PT        0.248294    0.500328    0.691657     0.004505
PT3366   PT        0.284191    0.462839    0.692235     0.004505
PT3367   PT        0.286249    0.500562    0.731525     0.004505
AU3368   AU        0.321205    0.462400    0.730274     0.007504
AU3369   AU        0.319422    0.502029    0.691100     0.007504
PT3370   PT        0.356434    0.463605    0.691765     0.004505
AU3371   AU        0.355162    0.502511    0.734281     0.007504
PT3372   PT        0.392523    0.461938    0.731995     0.004505
AU3373   AU        0.394409    0.501796    0.691114     0.007504
AU3374   AU        0.430091    0.462414    0.692700     0.007504
AU3375   AU        0.428853    0.500725    0.729446     0.007504
AU3376   AU        0.464068    0.463326    0.732427     0.007504
AU3377   AU        0.464462    0.499994    0.691456     0.007504
PT3378   PT        0.499031    0.461727    0.691280     0.004505
AU3379   AU        0.499116    0.500036    0.728664     0.007504
AU3380   AU        0.535636    0.461802    0.731681     0.007504
AU3381   AU        0.534237    0.501005    0.692742     0.007504
AU3382   AU        0.571404    0.461773    0.692161     0.007504
AU3383   AU        0.573346    0.499231    0.732102     0.007504
PT3384   PT        0.609360    0.460500    0.731347     0.004505
AU3385   AU        0.610247    0.497268    0.692237     0.007504
AU3386   AU        0.644429    0.462489    0.693332     0.007504
AU3387   AU        0.643767    0.499982    0.729703     0.007504
PT3388   PT        0.678677    0.463927    0.729809     0.004505
AU3389   AU        0.680095    0.500996    0.692148     0.007504
PT3390   PT        0.715575    0.461734    0.691358     0.004505
AU3391   AU        0.715483    0.499370    0.729732     0.007504
AU3392   AU        0.749246    0.463446    0.728664     0.007504
PT3393   PT        0.749705    0.500179    0.691076     0.004505
PT3394   PT        0.784442    0.460405    0.692503     0.004505
PT3395   PT        0.782481    0.499829    0.728184     0.004505
PT3396   PT        0.072536    0.539922    0.692222     0.004505
PT3397   PT        0.107046    0.534300    0.730466     0.004505
PT3398   PT        0.108367    0.579351    0.691031     0.004505
PT3399   PT        0.141279    0.540237    0.691874     0.004505
PT3400   PT        0.144150    0.578780    0.728830     0.004505
PT3401   PT        0.178853    0.540738    0.728798     0.004505
AU3402   AU        0.177614    0.579090    0.689953     0.007504
AU3403   AU        0.213688    0.540161    0.692123     0.007504
PT3404   PT        0.211664    0.577287    0.729310     0.004505
AU3405   AU        0.247223    0.538046    0.731265     0.007504
PT3406   PT        0.249707    0.576969    0.692200     0.004505
AU3407   AU        0.285363    0.540380    0.694205     0.007504
AU3408   AU        0.283049    0.579074    0.731202     0.007504
PT3409   PT        0.319996    0.541165    0.731882     0.004505
PT3410   PT        0.319341    0.580136    0.694158     0.004505
AU3411   AU        0.357758    0.538211    0.693118     0.007504
AU3412   AU        0.358079    0.576733    0.730877     0.007504
AU3413   AU        0.394339    0.540461    0.731984     0.007504
PT3414   PT        0.391017    0.579430    0.690868     0.004505
AU3415   AU        0.427444    0.541667    0.691214     0.007504
AU3416   AU        0.428948    0.579623    0.732088     0.007504
AU3417   AU        0.463398    0.541407    0.729531     0.007504
PT3418   PT        0.463920    0.578410    0.691345     0.004505
AU3419   AU        0.499685    0.540763    0.690596     0.007504
AU3420   AU        0.501183    0.576845    0.729830     0.007504
AU3421   AU        0.535507    0.540816    0.730065     0.007504
AU3422   AU        0.534697    0.576306    0.691689     0.007504
AU3423   AU        0.571514    0.540627    0.692370     0.007504
PT3424   PT        0.572371    0.577714    0.732519     0.004505
AU3425   AU        0.608890    0.540387    0.732655     0.007504
PT3426   PT        0.606256    0.577765    0.693194     0.004505
AU3427   AU        0.642813    0.541230    0.693552     0.007504
PT3428   PT        0.643915    0.577543    0.732173     0.004505
PT3429   PT        0.678300    0.537367    0.730944     0.004505
AU3430   AU        0.681009    0.578160    0.693755     0.007504
AU3431   AU        0.714678    0.538060    0.692150     0.007504
PT3432   PT        0.714430    0.578438    0.729610     0.004505
AU3433   AU        0.749742    0.536212    0.727898     0.007504
PT3434   PT        0.749459    0.575792    0.689426     0.004505
AU3435   AU        0.783113    0.536952    0.689485     0.007504
PT3436   PT        0.109361    0.616756    0.730326     0.004505
PT3437   PT        0.107324    0.654401    0.691344     0.004505
PT3438   PT        0.142332    0.616693    0.691392     0.004505
PT3439   PT        0.143795    0.655171    0.728754     0.004505
AU3440   AU        0.177729    0.616913    0.729462     0.007504
AU3441   AU        0.177605    0.653784    0.691417     0.007504
AU3442   AU        0.214004    0.615673    0.692068     0.007504
PT3443   PT        0.213734    0.656260    0.730091     0.004505
AU3444   AU        0.248405    0.616794    0.730491     0.007504
AU3445   AU        0.248474    0.657533    0.691437     0.007504
AU3446   AU        0.286142    0.617318    0.692453     0.007504
AU3447   AU        0.284450    0.655727    0.732448     0.007504
AU3448   AU        0.320948    0.616499    0.730138     0.007504
PT3449   PT        0.319270    0.655135    0.693427     0.004505
AU3450   AU        0.353943    0.616290    0.692187     0.007504
PT3451   PT        0.355175    0.656878    0.729662     0.004505
AU3452   AU        0.392686    0.618216    0.729849     0.007504
AU3453   AU        0.392516    0.655524    0.693887     0.007504
AU3454   AU        0.428782    0.617112    0.689634     0.007504
PT3455   PT        0.426128    0.656329    0.731547     0.004505
PT3456   PT        0.462098    0.617402    0.732989     0.004505
AU3457   AU        0.463073    0.654013    0.692956     0.007504
AU3458   AU        0.502429    0.616004    0.692380     0.007504
PT3459   PT        0.499053    0.655946    0.731427     0.004505
AU3460   AU        0.536990    0.617394    0.731170     0.007504
AU3461   AU        0.533844    0.655269    0.692133     0.007504
AU3462   AU        0.570961    0.616626    0.692441     0.007504
AU3463   AU        0.571328    0.656807    0.732417     0.007504
PT3464   PT        0.607510    0.618181    0.729952     0.004505
PT3465   PT        0.605960    0.656567    0.692757     0.004505
PT3466   PT        0.643925    0.614851    0.692670     0.004505
AU3467   AU        0.642825    0.654279    0.729445     0.007504
AU3468   AU        0.679421    0.618871    0.727547     0.007504
AU3469   AU        0.676903    0.656765    0.691395     0.007504
AU3470   AU        0.713531    0.617225    0.690432     0.007504
PT3471   PT        0.713533    0.654322    0.728117     0.004505
PT3472   PT        0.748014    0.615373    0.727900     0.004505
PT3473   PT        0.749145    0.653611    0.691791     0.004505
PT3474   PT        0.144293    0.693253    0.689111     0.004505
AU3475   AU        0.178948    0.691249    0.729951     0.007504
AU3476   AU        0.178681    0.731388    0.690943     0.007504
AU3477   AU        0.213667    0.693254    0.692933     0.007504
PT3478   PT        0.214670    0.730666    0.729212     0.004505
PT3479   PT        0.249545    0.693468    0.730903     0.004505
PT3480   PT        0.249260    0.731558    0.692825     0.004505
PT3481   PT        0.283955    0.694362    0.690792     0.004505
AU3482   AU        0.283765    0.731103    0.730081     0.007504
AU3483   AU        0.320526    0.693274    0.731720     0.007504
AU3484   AU        0.320463    0.733140    0.693277     0.007504
AU3485   AU        0.355514    0.694798    0.692763     0.007504
PT3486   PT        0.356104    0.733222    0.730159     0.004505
AU3487   AU        0.391378    0.695627    0.730444     0.007504
AU3488   AU        0.392961    0.732443    0.692541     0.007504
AU3489   AU        0.428601    0.692593    0.692194     0.007504
PT3490   PT        0.428715    0.731780    0.728980     0.004505
PT3491   PT        0.463766    0.692594    0.729987     0.004505
PT3492   PT        0.464447    0.730894    0.693215     0.004505
AU3493   AU        0.499631    0.694880    0.689795     0.007504
PT3494   PT        0.498595    0.731117    0.730625     0.004505
AU3495   AU        0.535599    0.693555    0.730569     0.007504
AU3496   AU        0.535337    0.732850    0.692034     0.007504
AU3497   AU        0.570153    0.693820    0.691523     0.007504
PT3498   PT        0.572063    0.731692    0.728648     0.004505
AU3499   AU        0.609100    0.694032    0.730478     0.007504
PT3500   PT        0.607100    0.731836    0.691320     0.004505
PT3501   PT        0.643816    0.694776    0.692199     0.004505
PT3502   PT        0.641960    0.731272    0.729551     0.004505
PT3503   PT        0.677083    0.694849    0.728985     0.004505
AU3504   AU        0.677622    0.731483    0.688172     0.007504
AU3505   AU        0.712873    0.692151    0.689248     0.007504
PT3506   PT        0.212882    0.768937    0.691739     0.004505
AU3507   AU        0.249862    0.767794    0.728643     0.007504
PT3508   PT        0.249995    0.805264    0.690933     0.004505
AU3509   AU        0.285185    0.770517    0.691466     0.007504
AU3510   AU        0.284338    0.806796    0.730646     0.007504
AU3511   AU        0.321406    0.771052    0.730407     0.007504
PT3512   PT        0.321284    0.807323    0.691169     0.004505
PT3513   PT        0.357585    0.769765    0.690748     0.004505
PT3514   PT        0.359195    0.805950    0.729258     0.004505
PT3515   PT        0.394099    0.769962    0.730068     0.004505
AU3516   AU        0.393786    0.807273    0.691860     0.007504
AU3517   AU        0.430183    0.769616    0.691928     0.007504
PT3518   PT        0.429242    0.805982    0.729960     0.004505
PT3519   PT        0.463570    0.769529    0.730070     0.004505
AU3520   AU        0.465420    0.807475    0.691519     0.007504
AU3521   AU        0.499696    0.769069    0.691625     0.007504
PT3522   PT        0.498052    0.807235    0.729803     0.004505
AU3523   AU        0.533936    0.769585    0.731274     0.007504
PT3524   PT        0.534422    0.806421    0.691339     0.004505
AU3525   AU        0.571687    0.770244    0.690716     0.007504
PT3526   PT        0.570917    0.806081    0.728938     0.004505
PT3527   PT        0.606740    0.768280    0.728997     0.004505
PT3528   PT        0.606789    0.806027    0.691914     0.004505
PT3529   PT        0.640954    0.770372    0.690447     0.004505
PT3530   PT        0.357194    0.844658    0.691345     0.004505
AU3531   AU        0.392613    0.843700    0.728874     0.007504
PT3532   PT        0.428105    0.845600    0.690742     0.004505
PT3533   PT        0.464190    0.842538    0.729162     0.004505
AU3534   AU        0.501458    0.843908    0.690403     0.007504
PT3535   PT        0.393459    0.116581    0.766624     0.004505
AU3536   AU        0.463405    0.115447    0.767420     0.007504
PT3537   PT        0.249895    0.194140    0.767332     0.004505
PT3538   PT        0.285227    0.155278    0.766352     0.004505
PT3539   PT        0.283719    0.192183    0.803692     0.004505
PT3540   PT        0.321495    0.193326    0.768779     0.004505
PT3541   PT        0.359402    0.154787    0.767803     0.004505
PT3542   PT        0.358568    0.191992    0.805173     0.004505
AU3543   AU        0.393067    0.155432    0.805753     0.007504
PT3544   PT        0.393018    0.191049    0.767969     0.004505
PT3545   PT        0.429212    0.152857    0.767937     0.004505
PT3546   PT        0.425462    0.192404    0.805746     0.004505
PT3547   PT        0.463817    0.154317    0.806835     0.004505
PT3548   PT        0.462226    0.191755    0.767730     0.004505
PT3549   PT        0.498390    0.155483    0.767505     0.004505
PT3550   PT        0.497668    0.192732    0.805446     0.004505
PT3551   PT        0.534464    0.190694    0.767905     0.004505
PT3552   PT        0.571555    0.154898    0.766378     0.004505
AU3553   AU        0.572549    0.191340    0.802628     0.007504
AU3554   AU        0.606172    0.193422    0.766904     0.007504
PT3555   PT        0.179018    0.272021    0.767504     0.004505
PT3556   PT        0.215958    0.232585    0.765378     0.004505
PT3557   PT        0.214776    0.269018    0.805368     0.004505
AU3558   AU        0.249965    0.232712    0.805579     0.007504
PT3559   PT        0.250022    0.268968    0.767388     0.004505
PT3560   PT        0.284294    0.230229    0.767001     0.004505
AU3561   AU        0.284844    0.269735    0.804599     0.007504
AU3562   AU        0.321044    0.229567    0.805585     0.007504
AU3563   AU        0.321986    0.268188    0.769062     0.007504
PT3564   PT        0.355738    0.230838    0.769920     0.004505
PT3565   PT        0.356687    0.269819    0.807703     0.004505
PT3566   PT        0.392629    0.231362    0.806432     0.004505
AU3567   AU        0.392267    0.267161    0.769555     0.007504
PT3568   PT        0.427883    0.228648    0.768108     0.004505
AU3569   AU        0.428172    0.269414    0.806930     0.007504
AU3570   AU        0.463622    0.229874    0.805421     0.007504
AU3571   AU        0.463806    0.268166    0.767295     0.007504
AU3572   AU        0.499332    0.228314    0.768313     0.007504
PT3573   PT        0.501938    0.269921    0.806670     0.004505
PT3574   PT        0.536405    0.229342    0.802706     0.004505
PT3575   PT        0.536241    0.269585    0.767069     0.004505
PT3576   PT        0.572259    0.230900    0.767241     0.004505
AU3577   AU        0.572597    0.268801    0.804937     0.007504
AU3578   AU        0.606980    0.231066    0.803290     0.007504
PT3579   PT        0.606292    0.267773    0.766255     0.004505
AU3580   AU        0.641073    0.231727    0.765857     0.007504
AU3581   AU        0.643521    0.269643    0.801562     0.007504
PT3582   PT        0.677230    0.269870    0.766798     0.004505
PT3583   PT        0.144260    0.307435    0.766003     0.004505
PT3584   PT        0.181014    0.306398    0.806594     0.004505
PT3585   PT        0.178372    0.345162    0.768206     0.004505
PT3586   PT        0.213933    0.307280    0.767689     0.004505
AU3587   AU        0.212639    0.346601    0.804735     0.007504
PT3588   PT        0.248657    0.307838    0.806854     0.004505
AU3589   AU        0.248898    0.346197    0.769086     0.007504
PT3590   PT        0.285348    0.305857    0.769094     0.004505
PT3591   PT        0.284233    0.345945    0.807862     0.004505
PT3592   PT        0.321156    0.307460    0.807039     0.004505
PT3593   PT        0.320630    0.342793    0.770454     0.004505
AU3594   AU        0.356797    0.306208    0.770527     0.007504
AU3595   AU        0.357163    0.343836    0.808405     0.007504
PT3596   PT        0.391746    0.305943    0.806811     0.004505
PT3597   PT        0.393225    0.343602    0.769732     0.004505
AU3598   AU        0.427110    0.305744    0.767634     0.007504
PT3599   PT        0.428350    0.343301    0.807569     0.004505
PT3600   PT        0.464508    0.308231    0.805961     0.004505
PT3601   PT        0.465930    0.344385    0.769157     0.004505
PT3602   PT        0.501395    0.304945    0.767628     0.004505
PT3603   PT        0.501783    0.343988    0.807956     0.004505
PT3604   PT        0.537978    0.306739    0.806416     0.004505
PT3605   PT        0.537525    0.342823    0.770538     0.004505
AU3606   AU        0.572330    0.306348    0.768528     0.007504
AU3607   AU        0.573731    0.346062    0.806772     0.007504
AU3608   AU        0.607702    0.307855    0.804708     0.007504
AU3609   AU        0.608562    0.346381    0.769491     0.007504
PT3610   PT        0.641395    0.308351    0.768528     0.004505
AU3611   AU        0.643903    0.345925    0.803931     0.007504
PT3612   PT        0.679500    0.306962    0.804449     0.004505
AU3613   AU        0.678085    0.344282    0.768083     0.007504
PT3614   PT        0.713116    0.308974    0.767256     0.004505
AU3615   AU        0.107388    0.423627    0.764902     0.007504
PT3616   PT        0.144959    0.386328    0.766738     0.004505
PT3617   PT        0.108459    0.387759    0.805808     0.004505
PT3618   PT        0.180312    0.384781    0.805041     0.004505
PT3619   PT        0.177271    0.424440    0.768369     0.004505
PT3620   PT        0.214296    0.385276    0.768642     0.004505
PT3621   PT        0.215231    0.425829    0.806673     0.004505
PT3622   PT        0.248287    0.384775    0.805244     0.004505
AU3623   AU        0.249263    0.423690    0.769267     0.007504
AU3624   AU        0.284549    0.384751    0.769937     0.007504
AU3625   AU        0.285874    0.423646    0.806620     0.007504
AU3626   AU        0.318701    0.384240    0.807884     0.007504
AU3627   AU        0.319327    0.421574    0.767921     0.007504
AU3628   AU        0.356767    0.383044    0.770911     0.007504
AU3629   AU        0.355270    0.424048    0.806646     0.007504
AU3630   AU        0.394301    0.383415    0.809172     0.007504
AU3631   AU        0.390805    0.421345    0.770670     0.007504
AU3632   AU        0.427238    0.382975    0.769587     0.007504
AU3633   AU        0.428474    0.422812    0.806364     0.007504
AU3634   AU        0.464361    0.383874    0.807979     0.007504
AU3635   AU        0.464825    0.424327    0.769425     0.007504
AU3636   AU        0.501408    0.384159    0.770343     0.007504
AU3637   AU        0.501636    0.422245    0.807285     0.007504
AU3638   AU        0.535507    0.383004    0.807636     0.007504
AU3639   AU        0.536872    0.422237    0.770383     0.007504
PT3640   PT        0.571527    0.381983    0.770314     0.004505
AU3641   AU        0.572426    0.422760    0.807626     0.007504
PT3642   PT        0.608956    0.385335    0.806423     0.004505
AU3643   AU        0.606719    0.421285    0.769380     0.007504
AU3644   AU        0.644447    0.383486    0.766937     0.007504
PT3645   PT        0.642264    0.424316    0.805226     0.004505
AU3646   AU        0.677106    0.386612    0.803550     0.007504
PT3647   PT        0.677066    0.424869    0.766957     0.004505
AU3648   AU        0.711462    0.384744    0.766509     0.007504
PT3649   PT        0.713801    0.424082    0.803134     0.004505
PT3650   PT        0.748868    0.424186    0.765640     0.004505
PT3651   PT        0.107054    0.498574    0.768376     0.004505
PT3652   PT        0.143045    0.461834    0.767354     0.004505
PT3653   PT        0.145124    0.500854    0.806662     0.004505
AU3654   AU        0.177467    0.462833    0.805868     0.007504
PT3655   PT        0.179339    0.499310    0.766480     0.004505
PT3656   PT        0.215368    0.462060    0.770344     0.004505
PT3657   PT        0.212733    0.500743    0.804939     0.004505
PT3658   PT        0.249523    0.463015    0.807697     0.004505
AU3659   AU        0.249143    0.499008    0.768936     0.007504
PT3660   PT        0.283973    0.462568    0.771208     0.004505
PT3661   PT        0.284768    0.502516    0.807175     0.004505
AU3662   AU        0.320855    0.463120    0.807328     0.007504
AU3663   AU        0.320708    0.501476    0.770422     0.007504
PT3664   PT        0.355088    0.464689    0.770543     0.004505
PT3665   PT        0.354975    0.501404    0.808426     0.004505
PT3666   PT        0.389620    0.461464    0.807700     0.004505
AU3667   AU        0.391068    0.501660    0.769336     0.007504
AU3668   AU        0.425555    0.463002    0.771303     0.007504
AU3669   AU        0.427105    0.503336    0.806982     0.007504
AU3670   AU        0.463482    0.464275    0.805858     0.007504
PT3671   PT        0.463189    0.502785    0.768202     0.004505
AU3672   AU        0.498978    0.461774    0.767685     0.007504
PT3673   PT        0.500116    0.500799    0.807825     0.004505
PT3674   PT        0.537010    0.461906    0.806338     0.004505
AU3675   AU        0.533116    0.501765    0.769172     0.007504
AU3676   AU        0.573576    0.459479    0.768949     0.007504
PT3677   PT        0.572329    0.499437    0.806720     0.004505
PT3678   PT        0.608003    0.461541    0.804694     0.004505
PT3679   PT        0.606449    0.499744    0.770055     0.004505
AU3680   AU        0.643524    0.462122    0.767725     0.007504
PT3681   PT        0.640818    0.498470    0.808009     0.004505
AU3682   AU        0.678547    0.461159    0.805460     0.007504
PT3683   PT        0.678307    0.498293    0.767431     0.004505
PT3684   PT        0.714837    0.462812    0.766753     0.004505
PT3685   PT        0.712406    0.500691    0.803372     0.004505
AU3686   AU        0.748201    0.500506    0.767642     0.007504
PT3687   PT        0.143191    0.537889    0.768317     0.004505
PT3688   PT        0.179354    0.538911    0.806269     0.004505
PT3689   PT        0.179666    0.576550    0.767745     0.004505
PT3690   PT        0.211750    0.538476    0.767656     0.004505
AU3691   AU        0.213556    0.576997    0.805676     0.007504
PT3692   PT        0.250006    0.538896    0.805285     0.004505
AU3693   AU        0.249265    0.578285    0.769398     0.007504
PT3694   PT        0.285123    0.542441    0.768831     0.004505
PT3695   PT        0.284419    0.579748    0.806455     0.004505
PT3696   PT        0.319991    0.540072    0.806281     0.004505
AU3697   AU        0.321471    0.579444    0.769212     0.007504
PT3698   PT        0.357211    0.541748    0.768818     0.004505
AU3699   AU        0.355604    0.579099    0.807150     0.007504
AU3700   AU        0.393479    0.541187    0.807863     0.007504
AU3701   AU        0.392110    0.578115    0.769875     0.007504
AU3702   AU        0.428319    0.539710    0.771715     0.007504
PT3703   PT        0.427641    0.578148    0.807324     0.004505
AU3704   AU        0.465755    0.538640    0.806803     0.007504
PT3705   PT        0.465201    0.577275    0.770090     0.004505
PT3706   PT        0.499109    0.540066    0.768901     0.004505
AU3707   AU        0.500355    0.575916    0.806895     0.007504
PT3708   PT        0.536305    0.540427    0.806774     0.004505
AU3709   AU        0.535454    0.577822    0.769090     0.007504
PT3710   PT        0.572143    0.539464    0.769878     0.004505
PT3711   PT        0.570844    0.578545    0.806489     0.004505
AU3712   AU        0.606532    0.538203    0.806439     0.007504
AU3713   AU        0.610053    0.577466    0.769216     0.007504
PT3714   PT        0.642972    0.537663    0.768625     0.004505
AU3715   AU        0.643741    0.577013    0.804714     0.007504
PT3716   PT        0.676737    0.536644    0.806862     0.004505
PT3717   PT        0.679239    0.576994    0.766552     0.004505
PT3718   PT        0.713362    0.537611    0.766691     0.004505
PT3719   PT        0.143867    0.616440    0.767041     0.004505
PT3720   PT        0.180508    0.617919    0.803912     0.004505
PT3721   PT        0.177763    0.653600    0.765450     0.004505
AU3722   AU        0.212325    0.616971    0.766536     0.007504
PT3723   PT        0.215029    0.655213    0.803445     0.004505
PT3724   PT        0.249359    0.616920    0.806340     0.004505
AU3725   AU        0.249558    0.654505    0.767829     0.007504
PT3726   PT        0.285516    0.617821    0.769524     0.004505
AU3727   AU        0.284195    0.655890    0.805491     0.007504
PT3728   PT        0.319748    0.617603    0.805831     0.004505
AU3729   AU        0.322702    0.656699    0.769003     0.007504
AU3730   AU        0.354770    0.617895    0.768821     0.007504
AU3731   AU        0.356999    0.654891    0.806980     0.007504
PT3732   PT        0.392003    0.618533    0.806351     0.004505
AU3733   AU        0.392632    0.655489    0.769022     0.007504
AU3734   AU        0.426334    0.615721    0.769135     0.007504
PT3735   PT        0.429341    0.655112    0.806167     0.004505
PT3736   PT        0.462462    0.615070    0.807082     0.004505
AU3737   AU        0.463607    0.654882    0.769870     0.007504
AU3738   AU        0.501356    0.617033    0.769977     0.007504
PT3739   PT        0.498366    0.656716    0.804944     0.004505
PT3740   PT        0.535704    0.616485    0.807554     0.004505
PT3741   PT        0.536194    0.655311    0.770043     0.004505
AU3742   AU        0.570785    0.616792    0.769039     0.007504
PT3743   PT        0.569811    0.655272    0.806047     0.004505
AU3744   AU        0.605827    0.616548    0.806166     0.007504
PT3745   PT        0.605584    0.653406    0.769400     0.004505
PT3746   PT        0.641355    0.616839    0.768907     0.004505
PT3747   PT        0.641365    0.654765    0.804374     0.004505
PT3748   PT        0.677718    0.617954    0.803871     0.004505
AU3749   AU        0.675986    0.656222    0.766443     0.007504
AU3750   AU        0.710579    0.617179    0.767753     0.007504
AU3751   AU        0.213804    0.693321    0.767521     0.007504
PT3752   PT        0.249115    0.693245    0.804888     0.004505
PT3753   PT        0.248531    0.733310    0.768113     0.004505
AU3754   AU        0.285034    0.693925    0.768159     0.007504
PT3755   PT        0.285951    0.731785    0.805267     0.004505
PT3756   PT        0.322399    0.694006    0.806595     0.004505
PT3757   PT        0.321099    0.731472    0.768577     0.004505
PT3758   PT        0.357742    0.694533    0.769095     0.004505
PT3759   PT        0.359831    0.730079    0.805914     0.004505
PT3760   PT        0.393089    0.694285    0.806678     0.004505
AU3761   AU        0.394132    0.731807    0.769095     0.007504
AU3762   AU        0.427083    0.693008    0.768928     0.007504
PT3763   PT        0.427117    0.733240    0.805986     0.004505
PT3764   PT        0.462931    0.693002    0.806011     0.004505
PT3765   PT        0.463363    0.732088    0.767337     0.004505
AU3766   AU        0.499019    0.695267    0.769438     0.007504
PT3767   PT        0.499975    0.731933    0.805003     0.004505
PT3768   PT        0.536322    0.693849    0.805126     0.004505
PT3769   PT        0.535819    0.729338    0.766858     0.004505
AU3770   AU        0.571685    0.694681    0.767455     0.007504
PT3771   PT        0.570915    0.732460    0.805034     0.004505
PT3772   PT        0.605544    0.694284    0.804230     0.004505
AU3773   AU        0.604497    0.731282    0.766855     0.007504
PT3774   PT        0.640495    0.693498    0.767943     0.004505
PT3775   PT        0.285674    0.767826    0.767230     0.004505
PT3776   PT        0.357224    0.768357    0.767929     0.004505
PT3777   PT        0.393064    0.769386    0.806658     0.004505
PT3778   PT        0.393092    0.808042    0.767019     0.004505
PT3779   PT        0.428793    0.770520    0.766132     0.004505
PT3780   PT        0.461338    0.769220    0.805538     0.004505
PT3781   PT        0.464635    0.807177    0.767416     0.004505
AU3782   AU        0.498790    0.767029    0.767016     0.007504
AU3783   AU        0.571249    0.767352    0.764238     0.007504
PT3784   PT        0.394207    0.194016    0.844939     0.004505
PT3785   PT        0.460815    0.191717    0.842417     0.004505
PT3786   PT        0.251379    0.268765    0.842917     0.004505
AU3787   AU        0.320855    0.266772    0.842782     0.007504
PT3788   PT        0.357223    0.229796    0.842365     0.004505
PT3789   PT        0.355761    0.268423    0.880923     0.004505
AU3790   AU        0.393444    0.268731    0.843706     0.007504
PT3791   PT        0.428689    0.231761    0.843243     0.004505
PT3792   PT        0.429316    0.268734    0.881001     0.004505
PT3793   PT        0.464074    0.270609    0.843605     0.004505
AU3794   AU        0.537495    0.220416    0.853060     0.007504
PT3795   PT        0.500068    0.269931    0.881706     0.004505
PT3796   PT        0.538565    0.269200    0.843831     0.004505
AU3797   AU        0.608420    0.269821    0.840850     0.007504
PT3798   PT        0.248762    0.348029    0.843792     0.004505
AU3799   AU        0.283788    0.308333    0.842871     0.007504
PT3800   PT        0.283217    0.345205    0.881086     0.004505
PT3801   PT        0.320473    0.305826    0.879740     0.004505
PT3802   PT        0.319398    0.346404    0.844719     0.004505
PT3803   PT        0.357796    0.306585    0.844074     0.004505
AU3804   AU        0.356104    0.345269    0.880513     0.007504
AU3805   AU        0.392546    0.306390    0.880460     0.007504
PT3806   PT        0.393600    0.344755    0.844772     0.004505
AU3807   AU        0.427727    0.306325    0.844696     0.007504
PT3808   PT        0.429738    0.345634    0.880463     0.004505
AU3809   AU        0.464142    0.309405    0.882017     0.007504
PT3810   PT        0.465640    0.344569    0.844336     0.004505
PT3811   PT        0.501332    0.309076    0.844990     0.004505
PT3812   PT        0.501127    0.345928    0.881091     0.004505
PT3813   PT        0.536055    0.309732    0.882768     0.004505
PT3814   PT        0.536668    0.344244    0.844071     0.004505
PT3815   PT        0.572807    0.308284    0.843997     0.004505
AU3816   AU        0.572567    0.344457    0.880187     0.007504
AU3817   AU        0.608329    0.346844    0.842798     0.007504
AU3818   AU        0.180949    0.423990    0.842593     0.007504
AU3819   AU        0.215933    0.386151    0.841761     0.007504
PT3820   PT        0.249461    0.385517    0.878731     0.004505
PT3821   PT        0.250337    0.424194    0.843282     0.004505
PT3822   PT        0.284940    0.385183    0.843805     0.004505
AU3823   AU        0.286102    0.423672    0.879633     0.007504
AU3824   AU        0.319390    0.384028    0.880906     0.007504
PT3825   PT        0.319289    0.425150    0.843710     0.004505
AU3826   AU        0.357219    0.385077    0.843864     0.007504
AU3827   AU        0.356887    0.423724    0.881398     0.007504
PT3828   PT        0.392462    0.384663    0.880777     0.004505
AU3829   AU        0.391441    0.421922    0.845017     0.007504
PT3830   PT        0.427990    0.383418    0.845137     0.004505
PT3831   PT        0.429309    0.423657    0.880397     0.004505
AU3832   AU        0.464222    0.383986    0.881142     0.007504
PT3833   PT        0.464657    0.424675    0.842850     0.004505
PT3834   PT        0.500986    0.384115    0.844262     0.004505
PT3835   PT        0.497911    0.422598    0.878777     0.004505
PT3836   PT        0.537482    0.383351    0.879355     0.004505
PT3837   PT        0.536321    0.422485    0.843527     0.004505
AU3838   AU        0.572596    0.383497    0.843547     0.007504
PT3839   PT        0.571896    0.421140    0.879483     0.004505
PT3840   PT        0.608015    0.383909    0.879391     0.004505
PT3841   PT        0.606899    0.421145    0.842115     0.004505
PT3842   PT        0.643457    0.384510    0.841383     0.004505
PT3843   PT        0.676370    0.423874    0.841513     0.004505
PT3844   PT        0.180559    0.501748    0.843590     0.004505
PT3845   PT        0.214962    0.462701    0.843445     0.004505
PT3846   PT        0.249392    0.464032    0.878836     0.004505
AU3847   AU        0.248534    0.502831    0.844269     0.007504
PT3848   PT        0.284089    0.461159    0.845084     0.004505
PT3849   PT        0.283514    0.501957    0.880334     0.004505
AU3850   AU        0.320938    0.461346    0.880733     0.007504
PT3851   PT        0.318880    0.501315    0.844165     0.004505
AU3852   AU        0.356849    0.460906    0.844246     0.007504
PT3853   PT        0.356356    0.500969    0.880547     0.004505
AU3854   AU        0.392506    0.463099    0.881144     0.007504
PT3855   PT        0.391531    0.500078    0.844856     0.004505
PT3856   PT        0.427466    0.463468    0.843460     0.004505
PT3857   PT        0.428388    0.499618    0.879874     0.004505
AU3858   AU        0.463296    0.462598    0.881239     0.007504
PT3859   PT        0.464410    0.501087    0.845875     0.004505
PT3860   PT        0.499147    0.463162    0.844719     0.004505
AU3861   AU        0.499616    0.498953    0.881657     0.007504
PT3862   PT        0.536602    0.460916    0.879600     0.004505
PT3863   PT        0.535320    0.500832    0.844332     0.004505
PT3864   PT        0.572556    0.462651    0.844247     0.004505
AU3865   AU        0.571521    0.500544    0.880049     0.007504
PT3866   PT        0.605835    0.462114    0.880654     0.004505
PT3867   PT        0.606199    0.500326    0.843161     0.004505
PT3868   PT        0.641336    0.460335    0.842548     0.004505
PT3869   PT        0.678056    0.501427    0.842373     0.004505
PT3870   PT        0.215136    0.537999    0.841558     0.004505
PT3871   PT        0.249954    0.543127    0.882432     0.004505
AU3872   AU        0.249721    0.576328    0.842963     0.007504
AU3873   AU        0.284491    0.538853    0.843299     0.007504
PT3874   PT        0.285789    0.578317    0.880484     0.004505
PT3875   PT        0.320199    0.540211    0.879089     0.004505
PT3876   PT        0.321252    0.578520    0.842536     0.004505
AU3877   AU        0.356104    0.539927    0.844171     0.007504
PT3878   PT        0.353971    0.577711    0.879542     0.004505
PT3879   PT        0.393733    0.537048    0.881318     0.004505
PT3880   PT        0.392148    0.578210    0.844208     0.004505
PT3881   PT        0.428649    0.538923    0.844175     0.004505
PT3882   PT        0.427196    0.577967    0.879751     0.004505
PT3883   PT        0.463822    0.538309    0.881061     0.004505
PT3884   PT        0.464473    0.577605    0.842543     0.004505
AU3885   AU        0.499142    0.539794    0.844319     0.007504
AU3886   AU        0.500561    0.577560    0.878829     0.007504
PT3887   PT        0.536402    0.537021    0.879653     0.004505
PT3888   PT        0.536173    0.579276    0.844714     0.004505
PT3889   PT        0.572923    0.537766    0.844035     0.004505
PT3890   PT        0.571143    0.576375    0.879245     0.004505
PT3891   PT        0.606770    0.539619    0.879382     0.004505
AU3892   AU        0.607372    0.576339    0.841850     0.007504
AU3893   AU        0.642070    0.538330    0.841966     0.007504
PT3894   PT        0.250333    0.655138    0.841819     0.004505
AU3895   AU        0.284596    0.616554    0.842306     0.007504
AU3896   AU        0.319946    0.617944    0.881197     0.007504
PT3897   PT        0.321246    0.655365    0.842078     0.004505
AU3898   AU        0.354666    0.615948    0.843390     0.007504
PT3899   PT        0.356992    0.652001    0.880618     0.004505
AU3900   AU        0.392792    0.617982    0.882122     0.007504
AU3901   AU        0.391563    0.652669    0.845282     0.007504
AU3902   AU        0.427357    0.615214    0.845842     0.007504
PT3903   PT        0.428124    0.653659    0.879857     0.004505
AU3904   AU        0.464707    0.615500    0.879242     0.007504
PT3905   PT        0.463492    0.654865    0.843054     0.004505
PT3906   PT        0.499146    0.615797    0.843850     0.004505
PT3907   PT        0.499107    0.653570    0.878165     0.004505
PT3908   PT        0.536026    0.615059    0.881142     0.004505
PT3909   PT        0.533895    0.653482    0.843182     0.004505
AU3910   AU        0.570853    0.614952    0.842866     0.007504
PT3911   PT        0.605116    0.656146    0.841297     0.004505
AU3912   AU        0.358932    0.691203    0.844938     0.007504
PT3913   PT        0.393611    0.730662    0.842690     0.004505
AU3914   AU        0.426810    0.692870    0.842768     0.007504
AU3915   AU        0.464380    0.731671    0.842302     0.007504
PT3916   PT        0.500748    0.692379    0.841611     0.004505
PT3917   PT        0.394372    0.425857    0.916434     0.004505
AU3918   AU        0.428799    0.385520    0.915368     0.007504
AU3919   AU        0.463452    0.424321    0.915920     0.007504
PT3920   PT        0.358316    0.461074    0.917045     0.004505
PT3921   PT        0.394267    0.498452    0.918394     0.004505
AU3922   AU        0.428748    0.459573    0.919401     0.007504
AU3923   AU        0.461563    0.498916    0.917168     0.007504
AU3924   AU        0.497030    0.461492    0.916908     0.007504
PT3925   PT        0.428491    0.537379    0.917219     0.004505
