data_00001
_audit_creation_method   'DISCUS'

_data_chemical_name_common 'Au.cell: Pearson 85'

_cell_length_a             57.1046
_cell_length_b             61.1835
_cell_length_c             61.1835
_cell_angle_alpha     90.0000
_cell_angle_beta      90.0000
_cell_angle_gamma     90.0000

_symmetry_space_group_name_H-M   'P1              '

loop_
_atom_site_label
_atom_site_symbol
_atom_site_fract_x
_atom_site_fract_y
_atom_site_fract_z
_atom_site_u_iso_or_equiv
PD1   PD        0.364627    0.272234    0.069295     0.005394
PD2   PD        0.429675    0.269788    0.070559     0.005394
PD3   PD        0.506837    0.268643    0.071862     0.005394
PD4   PD        0.290464    0.331720    0.069321     0.005394
PD5   PD        0.327025    0.302971    0.069417     0.005394
PD6   PD        0.362510    0.333800    0.070836     0.005394
PD7   PD        0.398788    0.303813    0.070113     0.005394
PD8   PD        0.433727    0.334769    0.069662     0.005394
PD9   PD        0.468892    0.299283    0.072151     0.005394
PD10   PD        0.505922    0.331602    0.071798     0.005394
PD11   PD        0.542196    0.301448    0.070858     0.005394
PD12   PD        0.577792    0.330273    0.069691     0.005394
PD13   PD        0.256502    0.368678    0.071803     0.005394
PD14   PD        0.294190    0.400329    0.071635     0.005394
PD15   PD        0.328444    0.367372    0.068595     0.005394
PD16   PD        0.362604    0.400019    0.072001     0.005394
PD17   PD        0.395372    0.365776    0.068502     0.005394
PD18   PD        0.399920    0.401040    0.035112     0.005394
PD19   PD        0.436712    0.365414    0.037482     0.005394
PD20   PD        0.433606    0.397125    0.068586     0.005394
PD21   PD        0.471120    0.369495    0.071037     0.005394
PD22   PD        0.469196    0.400167    0.037634     0.005394
AU23   AU        0.507798    0.400335    0.070401     0.007504
PD24   PD        0.541648    0.368105    0.071426     0.005394
PD25   PD        0.580277    0.401175    0.070096     0.005394
PD26   PD        0.580386    0.366876    0.040753     0.005394
PD27   PD        0.255498    0.437349    0.068141     0.005394
PD28   PD        0.293101    0.466790    0.071524     0.005394
PD29   PD        0.329961    0.433016    0.067020     0.005394
PD30   PD        0.357654    0.432145    0.038527     0.005394
PD31   PD        0.361464    0.470474    0.069880     0.005394
PD32   PD        0.398080    0.439605    0.070986     0.005394
PD33   PD        0.403346    0.469243    0.033943     0.005394
PD34   PD        0.433363    0.432834    0.036797     0.005394
AU35   AU        0.436415    0.467729    0.068092     0.007504
AU36   AU        0.470126    0.434471    0.069303     0.007504
PD37   PD        0.472430    0.467728    0.037505     0.005394
PD38   PD        0.506418    0.433113    0.037453     0.005394
AU39   AU        0.508427    0.466424    0.069866     0.007504
PD40   PD        0.544510    0.433775    0.070460     0.005394
PD41   PD        0.578277    0.465741    0.072209     0.005394
PD42   PD        0.651804    0.470023    0.068096     0.005394
PD43   PD        0.255899    0.499004    0.071968     0.005394
PD44   PD        0.293577    0.533723    0.070419     0.005394
PD45   PD        0.330266    0.503242    0.066759     0.005394
AU46   AU        0.367182    0.536766    0.070785     0.007504
PD47   PD        0.397766    0.501695    0.070944     0.005394
PD48   PD        0.435744    0.503964    0.036703     0.005394
PD49   PD        0.433522    0.534353    0.071676     0.005394
PD50   PD        0.471766    0.497695    0.071441     0.005394
PD51   PD        0.507204    0.532206    0.069660     0.005394
PD52   PD        0.543538    0.501357    0.072945     0.005394
PD53   PD        0.578904    0.535262    0.070036     0.005394
PD54   PD        0.617600    0.500054    0.000667     0.005394
PD55   PD        0.329688    0.565878    0.072949     0.005394
PD56   PD        0.363931    0.596970    0.068279     0.005394
PD57   PD        0.401750    0.567887    0.071624     0.005394
PD58   PD        0.434221    0.602166    0.073422     0.005394
PD59   PD        0.467940    0.567432    0.070590     0.005394
PD60   PD        0.508513    0.600679    0.071219     0.005394
PD61   PD        0.541002    0.568245    0.071416     0.005394
PD62   PD        0.290537    0.201797    0.137113     0.005394
PD63   PD        0.366540    0.202183    0.136049     0.005394
PD64   PD        0.400686    0.166021    0.136780     0.005394
PD65   PD        0.434388    0.203734    0.068140     0.005394
PD66   PD        0.437800    0.200250    0.135182     0.005394
PD67   PD        0.469085    0.169163    0.135098     0.005394
PD68   PD        0.471559    0.201676    0.103017     0.005394
AU69   AU        0.505712    0.202530    0.137407     0.007504
PD70   PD        0.577587    0.202586    0.134444     0.005394
PD71   PD        0.221342    0.268503    0.134060     0.005394
PD72   PD        0.258474    0.233929    0.135521     0.005394
PD73   PD        0.259425    0.265186    0.099549     0.005394
AU74   AU        0.291223    0.267058    0.137122     0.007504
PD75   PD        0.327790    0.234192    0.133706     0.005394
PD76   PD        0.326067    0.270421    0.099853     0.005394
PD77   PD        0.361455    0.235516    0.104832     0.005394
AU78   AU        0.364592    0.265857    0.136492     0.007504
PD79   PD        0.399231    0.233872    0.137738     0.005394
PD80   PD        0.398680    0.268093    0.103599     0.005394
PD81   PD        0.437416    0.236156    0.103024     0.005394
AU82   AU        0.435807    0.267960    0.136260     0.007504
AU83   AU        0.469508    0.232971    0.135036     0.007504
AU84   AU        0.471854    0.265416    0.103584     0.007504
AU85   AU        0.504544    0.233371    0.105429     0.007504
AU86   AU        0.505377    0.266836    0.136247     0.007504
AU87   AU        0.540741    0.236424    0.135708     0.007504
PD88   PD        0.540923    0.266868    0.103666     0.005394
AU89   AU        0.579934    0.266677    0.137716     0.007504
PD90   PD        0.612413    0.233892    0.137381     0.005394
PD91   PD        0.612652    0.269127    0.104600     0.005394
PD92   PD        0.652107    0.266774    0.134163     0.005394
PD93   PD        0.188859    0.304213    0.134622     0.005394
PD94   PD        0.223636    0.337243    0.135338     0.005394
PD95   PD        0.257982    0.300668    0.135632     0.005394
PD96   PD        0.257330    0.335182    0.102062     0.005394
PD97   PD        0.289925    0.299350    0.101298     0.005394
AU98   AU        0.291516    0.334953    0.135912     0.007504
AU99   AU        0.325755    0.298547    0.136226     0.007504
PD100   PD        0.326675    0.331151    0.105326     0.005394
PD101   PD        0.362824    0.302474    0.103386     0.005394
PD102   PD        0.362326    0.332474    0.137028     0.005394
PD103   PD        0.399307    0.299187    0.136319     0.005394
AU104   AU        0.399090    0.333654    0.103912     0.007504
PD105   PD        0.435941    0.299302    0.104483     0.005394
PD106   PD        0.435624    0.331249    0.135664     0.005394
AU107   AU        0.471999    0.299618    0.135014     0.007504
PD108   PD        0.470101    0.333149    0.105331     0.005394
PD109   PD        0.507270    0.298580    0.104813     0.005394
AU110   AU        0.507326    0.332739    0.134200     0.007504
AU111   AU        0.543815    0.299073    0.134082     0.007504
PD112   PD        0.541143    0.332488    0.101628     0.005394
AU113   AU        0.578759    0.300715    0.104462     0.007504
PD114   PD        0.581341    0.334032    0.134677     0.005394
AU115   AU        0.614184    0.299595    0.136462     0.007504
PD116   PD        0.615460    0.333345    0.103952     0.005394
PD117   PD        0.650908    0.330665    0.137316     0.005394
PD118   PD        0.680099    0.298837    0.135741     0.005394
PD119   PD        0.150589    0.400722    0.137894     0.005394
PD120   PD        0.187679    0.369139    0.135951     0.005394
PD121   PD        0.182891    0.400812    0.104173     0.005394
PD122   PD        0.218139    0.370955    0.102032     0.005394
AU123   AU        0.220581    0.401984    0.134114     0.007504
PD124   PD        0.255607    0.369470    0.135642     0.005394
PD125   PD        0.255460    0.402639    0.101059     0.005394
PD126   PD        0.290772    0.365429    0.102821     0.005394
PD127   PD        0.289481    0.403202    0.134719     0.005394
PD128   PD        0.328257    0.367952    0.137144     0.005394
PD129   PD        0.327744    0.400367    0.103429     0.005394
PD130   PD        0.361549    0.364224    0.102175     0.005394
PD131   PD        0.363757    0.401323    0.134509     0.005394
PD132   PD        0.399465    0.365874    0.136751     0.005394
PD133   PD        0.396331    0.402778    0.103363     0.005394
PD134   PD        0.434297    0.368947    0.100338     0.005394
PD135   PD        0.432266    0.404730    0.132720     0.005394
PD136   PD        0.470703    0.368725    0.133631     0.005394
AU137   AU        0.469099    0.401757    0.100002     0.007504
PD138   PD        0.506803    0.368007    0.102766     0.005394
PD139   PD        0.508026    0.401418    0.134329     0.005394
PD140   PD        0.543634    0.364551    0.134030     0.005394
AU141   AU        0.545409    0.402709    0.103176     0.007504
PD142   PD        0.578910    0.365673    0.101257     0.005394
AU143   AU        0.578939    0.401866    0.136156     0.007504
PD144   PD        0.615204    0.368146    0.136716     0.005394
AU145   AU        0.613675    0.399851    0.105013     0.007504
PD146   PD        0.648492    0.368862    0.104406     0.005394
AU147   AU        0.650645    0.402118    0.134050     0.007504
PD148   PD        0.682845    0.366393    0.134127     0.005394
PD149   PD        0.683197    0.401475    0.104039     0.005394
PD150   PD        0.720958    0.399664    0.138023     0.005394
PD151   PD        0.147517    0.463415    0.135995     0.005394
AU152   AU        0.184132    0.432820    0.135953     0.007504
PD153   PD        0.185413    0.466399    0.103874     0.005394
PD154   PD        0.221671    0.432946    0.101402     0.005394
AU155   AU        0.222235    0.467647    0.133739     0.007504
AU156   AU        0.254660    0.434478    0.134295     0.007504
AU157   AU        0.256430    0.467416    0.104186     0.007504
PD158   PD        0.292722    0.433024    0.100706     0.005394
AU159   AU        0.291377    0.467119    0.136250     0.007504
AU160   AU        0.326092    0.433380    0.133414     0.007504
PD161   PD        0.327663    0.469531    0.102311     0.005394
AU162   AU        0.361979    0.434481    0.102012     0.007504
AU163   AU        0.361748    0.467696    0.135040     0.007504
AU164   AU        0.398191    0.437472    0.135135     0.007504
PD165   PD        0.398858    0.468702    0.102418     0.005394
AU166   AU        0.433251    0.435806    0.101652     0.007504
AU167   AU        0.432772    0.467150    0.134103     0.007504
AU168   AU        0.470652    0.434930    0.133852     0.007504
AU169   AU        0.473020    0.466595    0.102644     0.007504
AU170   AU        0.507920    0.433680    0.101218     0.007504
AU171   AU        0.507329    0.466265    0.133442     0.007504
PD172   PD        0.544427    0.433975    0.134098     0.005394
PD173   PD        0.542633    0.468091    0.102544     0.005394
AU174   AU        0.580320    0.434108    0.102951     0.007504
PD175   PD        0.581397    0.470320    0.134973     0.005394
AU176   AU        0.616007    0.434280    0.134321     0.007504
PD177   PD        0.616025    0.469003    0.102425     0.005394
PD178   PD        0.650986    0.436272    0.099764     0.005394
PD179   PD        0.650553    0.467909    0.136216     0.005394
PD180   PD        0.685137    0.435073    0.135708     0.005394
PD181   PD        0.686478    0.468874    0.104902     0.005394
PD182   PD        0.722158    0.468981    0.134284     0.005394
PD183   PD        0.187950    0.500097    0.132918     0.005394
PD184   PD        0.223952    0.500816    0.101906     0.005394
PD185   PD        0.221727    0.533763    0.133864     0.005394
PD186   PD        0.256172    0.500109    0.134745     0.005394
PD187   PD        0.257242    0.533903    0.103289     0.005394
PD188   PD        0.291252    0.501308    0.102365     0.005394
PD189   PD        0.293315    0.535587    0.132837     0.005394
AU190   AU        0.327931    0.502616    0.135214     0.007504
AU191   AU        0.331255    0.534552    0.103372     0.007504
AU192   AU        0.365188    0.500894    0.103374     0.007504
AU193   AU        0.364198    0.533900    0.135565     0.007504
AU194   AU        0.399431    0.501265    0.134385     0.007504
AU195   AU        0.400663    0.534364    0.104320     0.007504
AU196   AU        0.437552    0.499039    0.101538     0.007504
AU197   AU        0.436760    0.533194    0.135791     0.007504
PD198   PD        0.472024    0.499783    0.133031     0.005394
PD199   PD        0.470843    0.535143    0.103482     0.005394
PD200   PD        0.506839    0.500142    0.100294     0.005394
AU201   AU        0.507699    0.532805    0.135594     0.007504
AU202   AU        0.543037    0.501771    0.133916     0.007504
PD203   PD        0.541998    0.533176    0.102754     0.005394
PD204   PD        0.582247    0.501209    0.102511     0.005394
AU205   AU        0.576951    0.535300    0.135327     0.007504
PD206   PD        0.615716    0.501393    0.135550     0.005394
PD207   PD        0.613616    0.538897    0.101478     0.005394
PD208   PD        0.646641    0.505460    0.101754     0.005394
PD209   PD        0.650142    0.537276    0.134251     0.005394
PD210   PD        0.683512    0.502633    0.136078     0.005394
PD211   PD        0.185799    0.566696    0.131582     0.005394
PD212   PD        0.223396    0.598745    0.134139     0.005394
AU213   AU        0.256475    0.568337    0.134694     0.007504
PD214   PD        0.256138    0.600927    0.101322     0.005394
PD215   PD        0.292624    0.568829    0.100245     0.005394
PD216   PD        0.291991    0.598838    0.135292     0.005394
PD217   PD        0.328861    0.566734    0.135006     0.005394
PD218   PD        0.327118    0.599617    0.101977     0.005394
AU219   AU        0.365102    0.568831    0.103994     0.007504
PD220   PD        0.361450    0.602634    0.135476     0.005394
PD221   PD        0.400143    0.566978    0.133824     0.005394
PD222   PD        0.397842    0.601315    0.101869     0.005394
PD223   PD        0.435859    0.570570    0.103780     0.005394
PD224   PD        0.434740    0.603858    0.134700     0.005394
AU225   AU        0.471991    0.566957    0.134772     0.007504
PD226   PD        0.473561    0.601798    0.101165     0.005394
PD227   PD        0.509305    0.565565    0.102950     0.005394
PD228   PD        0.506555    0.602535    0.136487     0.005394
PD229   PD        0.542885    0.568729    0.135679     0.005394
PD230   PD        0.542859    0.602126    0.105702     0.005394
PD231   PD        0.576708    0.565855    0.102020     0.005394
PD232   PD        0.575217    0.602203    0.136636     0.005394
AU233   AU        0.613798    0.569412    0.135485     0.007504
PD234   PD        0.607958    0.601441    0.102860     0.005394
PD235   PD        0.684912    0.607999    0.098247     0.005394
PD236   PD        0.682955    0.570721    0.130255     0.005394
PD237   PD        0.260359    0.631526    0.134292     0.005394
PD238   PD        0.292663    0.665157    0.133036     0.005394
AU239   AU        0.328486    0.633267    0.134511     0.007504
PD240   PD        0.362638    0.631918    0.102420     0.005394
PD241   PD        0.366453    0.664423    0.132192     0.005394
PD242   PD        0.397798    0.636295    0.136393     0.005394
PD243   PD        0.400713    0.667009    0.100024     0.005394
PD244   PD        0.435833    0.634833    0.102340     0.005394
PD245   PD        0.434712    0.669268    0.132895     0.005394
AU246   AU        0.470607    0.634690    0.137229     0.007504
PD247   PD        0.470349    0.668453    0.101491     0.005394
PD248   PD        0.508045    0.633827    0.103885     0.005394
AU249   AU        0.505953    0.665697    0.137281     0.007504
AU250   AU        0.541987    0.633307    0.136038     0.007504
PD251   PD        0.545358    0.706182    0.138134     0.005394
PD252   PD        0.607281    0.636159    0.133886     0.005394
PD253   PD        0.397308    0.697911    0.131461     0.005394
PD254   PD        0.471389    0.700271    0.134956     0.005394
PD255   PD        0.291244    0.136288    0.202068     0.005394
AU256   AU        0.360875    0.136057    0.203206     0.007504
PD257   PD        0.399627    0.105059    0.201843     0.005394
AU258   AU        0.397078    0.137221    0.170783     0.007504
PD259   PD        0.433554    0.137346    0.201363     0.005394
PD260   PD        0.470231    0.105142    0.202659     0.005394
PD261   PD        0.470850    0.136724    0.169031     0.005394
AU262   AU        0.504360    0.137532    0.202852     0.007504
PD263   PD        0.578560    0.134924    0.204279     0.005394
AU264   AU        0.219526    0.204220    0.202795     0.007504
PD265   PD        0.256648    0.170143    0.202816     0.005394
PD266   PD        0.257404    0.202540    0.170060     0.005394
PD267   PD        0.291685    0.167772    0.170664     0.005394
AU268   AU        0.291038    0.201719    0.202633     0.007504
PD269   PD        0.325266    0.169131    0.203551     0.005394
AU270   AU        0.326196    0.201484    0.167607     0.007504
AU271   AU        0.362345    0.168820    0.170554     0.007504
AU272   AU        0.362203    0.200263    0.202395     0.007504
AU273   AU        0.398343    0.168325    0.202544     0.007504
PD274   PD        0.397786    0.199207    0.170221     0.005394
PD275   PD        0.433885    0.169879    0.168785     0.005394
PD276   PD        0.434583    0.200866    0.202336     0.005394
AU277   AU        0.470487    0.168615    0.201667     0.007504
AU278   AU        0.468353    0.200880    0.169023     0.007504
PD279   PD        0.505390    0.169869    0.166663     0.005394
AU280   AU        0.506634    0.201816    0.199617     0.007504
PD281   PD        0.542583    0.169318    0.203109     0.005394
AU282   AU        0.543765    0.202045    0.167730     0.007504
PD283   PD        0.576966    0.170687    0.172900     0.005394
AU284   AU        0.579640    0.203587    0.202366     0.007504
AU285   AU        0.615160    0.171018    0.203062     0.007504
PD286   PD        0.613908    0.201079    0.168517     0.005394
PD287   PD        0.647315    0.203071    0.202479     0.005394
PD288   PD        0.150402    0.270051    0.199460     0.005394
PD289   PD        0.185387    0.235776    0.202802     0.005394
PD290   PD        0.183549    0.268002    0.168754     0.005394
PD291   PD        0.220652    0.236060    0.169555     0.005394
PD292   PD        0.220842    0.268385    0.202242     0.005394
AU293   AU        0.256954    0.235155    0.200861     0.007504
PD294   PD        0.255528    0.267569    0.167012     0.005394
AU295   AU        0.291445    0.234000    0.169315     0.007504
AU296   AU        0.290746    0.267946    0.200681     0.007504
AU297   AU        0.327179    0.232645    0.200853     0.007504
AU298   AU        0.326357    0.266438    0.167699     0.007504
AU299   AU        0.362414    0.234523    0.169242     0.007504
AU300   AU        0.363224    0.267675    0.201507     0.007504
AU301   AU        0.397863    0.234309    0.200072     0.007504
PD302   PD        0.400089    0.265963    0.168018     0.005394
AU303   AU        0.435605    0.235864    0.169136     0.007504
AU304   AU        0.437281    0.268557    0.202251     0.007504
PD305   PD        0.469475    0.233125    0.200052     0.005394
AU306   AU        0.471024    0.267727    0.167723     0.007504
AU307   AU        0.503578    0.234616    0.168825     0.007504
AU308   AU        0.506994    0.269993    0.200331     0.007504
PD309   PD        0.543827    0.236913    0.201825     0.005394
AU310   AU        0.543328    0.267566    0.167648     0.007504
AU311   AU        0.577455    0.234811    0.169584     0.007504
PD312   PD        0.578798    0.267648    0.199423     0.005394
AU313   AU        0.613040    0.234473    0.201245     0.007504
AU314   AU        0.615618    0.266712    0.168590     0.007504
PD315   PD        0.646857    0.233883    0.166358     0.005394
AU316   AU        0.649706    0.266986    0.202727     0.007504
PD317   PD        0.682852    0.235151    0.201854     0.005394
PD318   PD        0.684496    0.269554    0.168745     0.005394
PD319   PD        0.719561    0.272571    0.203749     0.005394
PD320   PD        0.114804    0.300315    0.198860     0.005394
PD321   PD        0.152453    0.302647    0.167071     0.005394
PD322   PD        0.151733    0.333074    0.200836     0.005394
AU323   AU        0.186629    0.300122    0.198359     0.007504
PD324   PD        0.185836    0.335233    0.166894     0.005394
PD325   PD        0.220012    0.300521    0.166855     0.005394
AU326   AU        0.220538    0.334478    0.197280     0.007504
AU327   AU        0.257597    0.300372    0.202043     0.007504
AU328   AU        0.256359    0.334379    0.168185     0.007504
AU329   AU        0.290416    0.300275    0.168521     0.007504
AU330   AU        0.291878    0.333081    0.199813     0.007504
AU331   AU        0.326915    0.300014    0.199721     0.007504
AU332   AU        0.326063    0.333115    0.167146     0.007504
PD333   PD        0.361976    0.298701    0.169745     0.005394
AU334   AU        0.362393    0.333725    0.200407     0.007504
AU335   AU        0.398747    0.301139    0.201110     0.007504
PD336   PD        0.400966    0.334455    0.167834     0.005394
AU337   AU        0.435633    0.299823    0.169454     0.007504
AU338   AU        0.435340    0.334761    0.199723     0.007504
AU339   AU        0.472749    0.300535    0.202690     0.007504
AU340   AU        0.472068    0.331456    0.167779     0.007504
PD341   PD        0.507353    0.301190    0.167844     0.005394
AU342   AU        0.506495    0.334049    0.200720     0.007504
AU343   AU        0.543993    0.299555    0.200684     0.007504
AU344   AU        0.544970    0.332633    0.167979     0.007504
AU345   AU        0.578707    0.299474    0.168105     0.007504
AU346   AU        0.580096    0.333412    0.203208     0.007504
AU347   AU        0.613506    0.298491    0.201870     0.007504
PD348   PD        0.614327    0.333593    0.168034     0.005394
PD349   PD        0.648191    0.298951    0.168941     0.005394
PD350   PD        0.646682    0.335005    0.199921     0.005394
AU351   AU        0.684286    0.299759    0.199622     0.007504
PD352   PD        0.684532    0.336878    0.170102     0.005394
PD353   PD        0.720350    0.300894    0.165101     0.005394
PD354   PD        0.721558    0.333387    0.199573     0.005394
PD355   PD        0.760162    0.302202    0.202386     0.005394
PD356   PD        0.076009    0.401344    0.199003     0.005394
PD357   PD        0.110694    0.367585    0.201859     0.005394
PD358   PD        0.115455    0.401414    0.170341     0.005394
PD359   PD        0.152492    0.367518    0.167007     0.005394
PD360   PD        0.151189    0.401304    0.200463     0.005394
PD361   PD        0.185735    0.369647    0.200800     0.005394
PD362   PD        0.185718    0.401058    0.167908     0.005394
AU363   AU        0.221655    0.369266    0.166851     0.007504
AU364   AU        0.219300    0.399298    0.200031     0.007504
AU365   AU        0.255273    0.368753    0.200374     0.007504
AU366   AU        0.256173    0.401547    0.166658     0.007504
PD367   PD        0.290340    0.369250    0.167094     0.005394
AU368   AU        0.289597    0.399536    0.200479     0.007504
AU369   AU        0.327692    0.368963    0.200333     0.007504
AU370   AU        0.329049    0.401590    0.168301     0.007504
PD371   PD        0.363522    0.368131    0.169360     0.005394
AU372   AU        0.364389    0.401229    0.200225     0.007504
AU373   AU        0.397772    0.367127    0.200149     0.007504
AU374   AU        0.399375    0.400901    0.167362     0.007504
AU375   AU        0.436525    0.369238    0.167252     0.007504
AU376   AU        0.434702    0.400697    0.201496     0.007504
AU377   AU        0.471051    0.366340    0.201266     0.007504
PD378   PD        0.471922    0.401149    0.166184     0.005394
PD379   PD        0.506969    0.365399    0.168202     0.005394
AU380   AU        0.507275    0.399624    0.201062     0.007504
AU381   AU        0.544583    0.367499    0.200581     0.007504
AU382   AU        0.543105    0.400204    0.168831     0.007504
AU383   AU        0.580027    0.367238    0.168007     0.007504
AU384   AU        0.578896    0.401744    0.199070     0.007504
PD385   PD        0.613228    0.370033    0.200952     0.005394
AU386   AU        0.616821    0.401488    0.166330     0.007504
PD387   PD        0.651591    0.367796    0.168239     0.005394
PD388   PD        0.651669    0.398549    0.201960     0.005394
PD389   PD        0.689465    0.367400    0.202251     0.005394
PD390   PD        0.683928    0.403657    0.166740     0.005394
PD391   PD        0.720762    0.365283    0.163631     0.005394
PD392   PD        0.719337    0.403679    0.199842     0.005394
PD393   PD        0.755584    0.368674    0.202754     0.005394
PD394   PD        0.754695    0.404764    0.167748     0.005394
PD395   PD        0.789018    0.400122    0.204294     0.005394
PD396   PD        0.081627    0.464573    0.201594     0.005394
PD397   PD        0.115907    0.433793    0.200892     0.005394
PD398   PD        0.076977    0.432972    0.169444     0.005394
PD399   PD        0.150313    0.434232    0.168803     0.005394
PD400   PD        0.150571    0.464803    0.199358     0.005394
PD401   PD        0.185979    0.434420    0.201430     0.005394
AU402   AU        0.185345    0.466157    0.165728     0.007504
AU403   AU        0.221370    0.432886    0.168827     0.007504
AU404   AU        0.218532    0.467192    0.200065     0.007504
AU405   AU        0.255001    0.434546    0.200368     0.007504
AU406   AU        0.254434    0.466365    0.167512     0.007504
AU407   AU        0.291766    0.433579    0.168903     0.007504
AU408   AU        0.291607    0.468634    0.198071     0.007504
AU409   AU        0.326610    0.433170    0.201500     0.007504
AU410   AU        0.327276    0.468181    0.165830     0.007504
AU411   AU        0.364893    0.435375    0.166401     0.007504
AU412   AU        0.362979    0.468750    0.198783     0.007504
AU413   AU        0.398657    0.434682    0.200298     0.007504
AU414   AU        0.398373    0.468433    0.166756     0.007504
PD415   PD        0.434733    0.433670    0.170863     0.005394
AU416   AU        0.434479    0.469682    0.201745     0.007504
AU417   AU        0.471102    0.437508    0.201699     0.007504
AU418   AU        0.470562    0.468605    0.167556     0.007504
AU419   AU        0.507425    0.435961    0.165444     0.007504
AU420   AU        0.507842    0.469596    0.201611     0.007504
AU421   AU        0.544196    0.433839    0.198959     0.007504
PD422   PD        0.544230    0.468522    0.166975     0.005394
AU423   AU        0.580184    0.435558    0.166558     0.007504
PD424   PD        0.579782    0.468266    0.202622     0.005394
AU425   AU        0.615614    0.433981    0.198449     0.007504
AU426   AU        0.613793    0.466713    0.167979     0.007504
AU427   AU        0.650050    0.436066    0.167676     0.007504
AU428   AU        0.651733    0.468055    0.200266     0.007504
PD429   PD        0.684888    0.433900    0.199239     0.005394
PD430   PD        0.687005    0.466848    0.165720     0.005394
PD431   PD        0.720319    0.435936    0.166354     0.005394
PD432   PD        0.718320    0.467489    0.198866     0.005394
PD433   PD        0.753913    0.435433    0.203583     0.005394
PD434   PD        0.755962    0.471471    0.167501     0.005394
PD435   PD        0.790357    0.465749    0.201888     0.005394
PD436   PD        0.113636    0.497339    0.200133     0.005394
PD437   PD        0.151450    0.497991    0.167825     0.005394
PD438   PD        0.150793    0.534483    0.201858     0.005394
PD439   PD        0.184917    0.501645    0.201765     0.005394
PD440   PD        0.182942    0.533284    0.169612     0.005394
AU441   AU        0.218099    0.500431    0.166659     0.007504
AU442   AU        0.219803    0.532843    0.199600     0.007504
AU443   AU        0.254388    0.500224    0.198343     0.007504
PD444   PD        0.253022    0.534200    0.168150     0.005394
PD445   PD        0.292222    0.500400    0.167130     0.005394
PD446   PD        0.291619    0.533082    0.198902     0.005394
AU447   AU        0.327743    0.501357    0.201604     0.007504
AU448   AU        0.328737    0.533926    0.169286     0.007504
AU449   AU        0.363017    0.500289    0.166953     0.007504
AU450   AU        0.363169    0.533728    0.200934     0.007504
AU451   AU        0.400266    0.502666    0.198459     0.007504
AU452   AU        0.400529    0.535447    0.166449     0.007504
AU453   AU        0.436524    0.501334    0.167052     0.007504
AU454   AU        0.436479    0.535378    0.199330     0.007504
AU455   AU        0.471038    0.501687    0.199167     0.007504
AU456   AU        0.471951    0.534435    0.168009     0.007504
AU457   AU        0.505796    0.499614    0.166885     0.007504
AU458   AU        0.507570    0.534918    0.198839     0.007504
AU459   AU        0.542513    0.503402    0.201460     0.007504
AU460   AU        0.542309    0.534651    0.167863     0.007504
PD461   PD        0.579798    0.501674    0.170290     0.005394
PD462   PD        0.580378    0.538211    0.200475     0.005394
PD463   PD        0.618402    0.503632    0.201861     0.005394
AU464   AU        0.614687    0.535104    0.165942     0.007504
PD465   PD        0.651790    0.501573    0.167797     0.005394
AU466   AU        0.651579    0.537389    0.198388     0.007504
AU467   AU        0.684254    0.501844    0.200011     0.007504
PD468   PD        0.687405    0.536601    0.169372     0.005394
PD469   PD        0.719459    0.501904    0.167815     0.005394
PD470   PD        0.719802    0.535602    0.203456     0.005394
PD471   PD        0.754466    0.501519    0.203515     0.005394
PD472   PD        0.118054    0.566884    0.200674     0.005394
PD473   PD        0.148446    0.568307    0.164995     0.005394
PD474   PD        0.151040    0.602049    0.201794     0.005394
PD475   PD        0.183436    0.566034    0.199302     0.005394
PD476   PD        0.183934    0.601968    0.167720     0.005394
PD477   PD        0.218266    0.569991    0.168292     0.005394
AU478   AU        0.222289    0.600289    0.198789     0.007504
AU479   AU        0.256230    0.568178    0.199132     0.007504
AU480   AU        0.257991    0.598900    0.166563     0.007504
PD481   PD        0.290824    0.566351    0.167197     0.005394
AU482   AU        0.290940    0.600693    0.198495     0.007504
PD483   PD        0.327259    0.567381    0.201038     0.005394
AU484   AU        0.327560    0.600346    0.168098     0.007504
AU485   AU        0.362990    0.567216    0.166818     0.007504
AU486   AU        0.361697    0.601620    0.199983     0.007504
AU487   AU        0.398087    0.566487    0.199581     0.007504
AU488   AU        0.399888    0.600283    0.166956     0.007504
AU489   AU        0.435453    0.569383    0.166022     0.007504
PD490   PD        0.434259    0.601547    0.198251     0.005394
AU491   AU        0.470851    0.568257    0.198770     0.007504
AU492   AU        0.471731    0.601916    0.167995     0.007504
AU493   AU        0.507473    0.568062    0.164851     0.007504
AU494   AU        0.507047    0.602337    0.198923     0.007504
AU495   AU        0.542456    0.566373    0.200244     0.007504
AU496   AU        0.541855    0.601785    0.167696     0.007504
PD497   PD        0.577980    0.568311    0.166604     0.005394
AU498   AU        0.576005    0.601154    0.200621     0.007504
AU499   AU        0.614733    0.570171    0.201759     0.007504
AU500   AU        0.612693    0.600204    0.169750     0.007504
AU501   AU        0.649225    0.570775    0.166956     0.007504
AU502   AU        0.650516    0.600897    0.201247     0.007504
PD503   PD        0.689499    0.569803    0.200473     0.005394
PD504   PD        0.684896    0.600643    0.166661     0.005394
PD505   PD        0.754952    0.534027    0.169885     0.005394
PD506   PD        0.749318    0.643373    0.199269     0.005394
PD507   PD        0.755045    0.567854    0.203467     0.005394
PD508   PD        0.187944    0.630362    0.199755     0.005394
AU509   AU        0.223090    0.631718    0.165613     0.007504
PD510   PD        0.230034    0.705997    0.164017     0.005394
PD511   PD        0.257270    0.632572    0.198879     0.005394
PD512   PD        0.257767    0.666532    0.166966     0.005394
AU513   AU        0.292360    0.636388    0.167019     0.007504
AU514   AU        0.291374    0.667469    0.198494     0.007504
AU515   AU        0.326537    0.632963    0.197501     0.007504
AU516   AU        0.327782    0.667833    0.166756     0.007504
AU517   AU        0.362735    0.633682    0.167422     0.007504
AU518   AU        0.362696    0.666286    0.199631     0.007504
AU519   AU        0.397698    0.634366    0.199806     0.007504
PD520   PD        0.400283    0.668396    0.168720     0.005394
PD521   PD        0.435945    0.634470    0.166726     0.005394
PD522   PD        0.435190    0.668799    0.200072     0.005394
PD523   PD        0.467565    0.635105    0.200619     0.005394
AU524   AU        0.471144    0.667238    0.169109     0.007504
AU525   AU        0.506160    0.633110    0.169040     0.007504
PD526   PD        0.506968    0.669699    0.198314     0.005394
AU527   AU        0.541706    0.633958    0.200899     0.007504
AU528   AU        0.542107    0.666816    0.167234     0.007504
AU529   AU        0.576007    0.635365    0.168943     0.007504
PD530   PD        0.579540    0.666227    0.204411     0.005394
AU531   AU        0.614205    0.632368    0.202950     0.007504
PD532   PD        0.615382    0.664956    0.172161     0.005394
PD533   PD        0.648341    0.633297    0.168428     0.005394
PD534   PD        0.647623    0.666702    0.201870     0.005394
PD535   PD        0.686834    0.635351    0.203379     0.005394
PD536   PD        0.259939    0.702067    0.197816     0.005394
PD537   PD        0.293185    0.699158    0.164971     0.005394
PD538   PD        0.296049    0.735991    0.199317     0.005394
PD539   PD        0.332046    0.703196    0.200897     0.005394
PD540   PD        0.362240    0.700104    0.165363     0.005394
PD541   PD        0.369171    0.735295    0.199560     0.005394
PD542   PD        0.405176    0.703908    0.202946     0.005394
PD543   PD        0.438442    0.766888    0.164617     0.005394
PD544   PD        0.438672    0.699939    0.168609     0.005394
PD545   PD        0.438869    0.735066    0.204744     0.005394
PD546   PD        0.470978    0.700775    0.200082     0.005394
PD547   PD        0.470883    0.731869    0.166527     0.005394
PD548   PD        0.505288    0.701802    0.166157     0.005394
PD549   PD        0.507009    0.735525    0.201186     0.005394
PD550   PD        0.544343    0.705506    0.201117     0.005394
PD551   PD        0.580604    0.695216    0.168716     0.005394
PD552   PD        0.571092    0.773990    0.169693     0.005394
PD553   PD        0.615065    0.702374    0.200594     0.005394
PD554   PD        0.404320    0.767608    0.201037     0.005394
PD555   PD        0.472968    0.770919    0.203813     0.005394
PD556   PD        0.367868    0.072228    0.267853     0.005394
PD557   PD        0.436068    0.071365    0.269776     0.005394
PD558   PD        0.510723    0.069315    0.263162     0.005394
PD559   PD        0.215454    0.139451    0.267943     0.005394
PD560   PD        0.256696    0.097785    0.263353     0.005394
PD561   PD        0.257413    0.135499    0.234910     0.005394
PD562   PD        0.292688    0.135670    0.267480     0.005394
PD563   PD        0.329043    0.102363    0.267467     0.005394
PD564   PD        0.326697    0.138046    0.234800     0.005394
PD565   PD        0.363949    0.104453    0.235143     0.005394
PD566   PD        0.364762    0.136225    0.268653     0.005394
PD567   PD        0.400081    0.102478    0.269102     0.005394
AU568   AU        0.400059    0.134982    0.235490     0.007504
PD569   PD        0.436352    0.105618    0.232882     0.005394
PD570   PD        0.435256    0.136248    0.269272     0.005394
PD571   PD        0.473109    0.099687    0.267061     0.005394
AU572   AU        0.472542    0.137279    0.237317     0.007504
PD573   PD        0.504399    0.103728    0.232646     0.005394
PD574   PD        0.508772    0.135269    0.270069     0.005394
PD575   PD        0.543473    0.106483    0.265906     0.005394
PD576   PD        0.541437    0.137520    0.236343     0.005394
PD577   PD        0.579216    0.138403    0.268208     0.005394
PD578   PD        0.612194    0.102188    0.267348     0.005394
PD579   PD        0.617295    0.134551    0.232392     0.005394
PD580   PD        0.649032    0.139946    0.268423     0.005394
PD581   PD        0.151434    0.201421    0.268567     0.005394
PD582   PD        0.185947    0.170441    0.266901     0.005394
PD583   PD        0.182765    0.202910    0.237202     0.005394
PD584   PD        0.219979    0.167023    0.234204     0.005394
PD585   PD        0.220720    0.202659    0.267533     0.005394
AU586   AU        0.255372    0.167424    0.266671     0.007504
AU587   AU        0.254869    0.202134    0.234477     0.007504
AU588   AU        0.290430    0.169636    0.236625     0.007504
AU589   AU        0.289606    0.201426    0.268385     0.007504
AU590   AU        0.326526    0.168883    0.266231     0.007504
AU591   AU        0.326678    0.201281    0.234019     0.007504
AU592   AU        0.365128    0.168638    0.234808     0.007504
AU593   AU        0.361161    0.200024    0.267603     0.007504
AU594   AU        0.401431    0.167074    0.266701     0.007504
AU595   AU        0.400364    0.200447    0.234096     0.007504
AU596   AU        0.435625    0.168328    0.234659     0.007504
AU597   AU        0.433976    0.200614    0.266496     0.007504
PD598   PD        0.470221    0.168358    0.269646     0.005394
AU599   AU        0.470242    0.201095    0.235496     0.007504
PD600   PD        0.506760    0.169112    0.236387     0.005394
AU601   AU        0.504856    0.201802    0.267794     0.007504
AU602   AU        0.544269    0.167538    0.269782     0.007504
PD603   PD        0.545503    0.200019    0.234404     0.005394
PD604   PD        0.580237    0.169621    0.235379     0.005394
PD605   PD        0.579104    0.200378    0.268425     0.005394
PD606   PD        0.612790    0.170182    0.268166     0.005394
AU607   AU        0.613692    0.203708    0.236311     0.007504
PD608   PD        0.651120    0.169385    0.233370     0.005394
PD609   PD        0.649694    0.202096    0.267463     0.005394
PD610   PD        0.688820    0.168295    0.265782     0.005394
PD611   PD        0.688127    0.201994    0.236951     0.005394
PD612   PD        0.725390    0.199572    0.267364     0.005394
PD613   PD        0.076613    0.272712    0.267413     0.005394
PD614   PD        0.114313    0.234876    0.272754     0.005394
PD615   PD        0.110443    0.264622    0.240002     0.005394
PD616   PD        0.148906    0.236891    0.233449     0.005394
PD617   PD        0.149380    0.268852    0.266888     0.005394
AU618   AU        0.182571    0.236087    0.266481     0.007504
PD619   PD        0.186701    0.269310    0.236046     0.005394
PD620   PD        0.218557    0.235404    0.234075     0.005394
PD621   PD        0.216905    0.266512    0.267539     0.005394
PD622   PD        0.256669    0.233420    0.266611     0.005394
AU623   AU        0.257017    0.265376    0.233865     0.007504
AU624   AU        0.291810    0.233130    0.233914     0.007504
PD625   PD        0.292919    0.268093    0.268878     0.005394
PD626   PD        0.324462    0.232999    0.267617     0.005394
AU627   AU        0.326372    0.265353    0.234163     0.007504
PD628   PD        0.363274    0.233360    0.232953     0.005394
AU629   AU        0.362749    0.266670    0.264981     0.007504
AU630   AU        0.397244    0.233476    0.266076     0.007504
PD631   PD        0.399012    0.267742    0.234957     0.005394
AU632   AU        0.434969    0.234208    0.235635     0.007504
AU633   AU        0.435134    0.267286    0.267125     0.007504
AU634   AU        0.469892    0.234422    0.269412     0.007504
AU635   AU        0.471819    0.265428    0.234104     0.007504
PD636   PD        0.506976    0.233615    0.231632     0.005394
AU637   AU        0.507388    0.267644    0.266062     0.007504
PD638   PD        0.541560    0.234208    0.267078     0.005394
AU639   AU        0.543097    0.269207    0.234378     0.007504
AU640   AU        0.577444    0.233724    0.235229     0.007504
AU641   AU        0.579723    0.267410    0.266045     0.007504
AU642   AU        0.613787    0.233382    0.266584     0.007504
AU643   AU        0.612216    0.265610    0.232959     0.007504
AU644   AU        0.648940    0.234362    0.234897     0.007504
AU645   AU        0.648981    0.267101    0.265824     0.007504
PD646   PD        0.684756    0.235441    0.268957     0.005394
PD647   PD        0.684901    0.266597    0.234697     0.005394
PD648   PD        0.722955    0.236472    0.237940     0.005394
PD649   PD        0.722174    0.269186    0.266295     0.005394
PD650   PD        0.755196    0.234952    0.271472     0.005394
PD651   PD        0.792266    0.270669    0.267585     0.005394
PD652   PD        0.791613    0.235922    0.301632     0.005394
PD653   PD        0.077393    0.334144    0.268898     0.005394
PD654   PD        0.113490    0.302037    0.265633     0.005394
PD655   PD        0.115386    0.334148    0.234711     0.005394
PD656   PD        0.150664    0.301702    0.234539     0.005394
PD657   PD        0.150039    0.336790    0.267362     0.005394
AU658   AU        0.184448    0.304064    0.270093     0.007504
PD659   PD        0.184987    0.334019    0.231831     0.005394
AU660   AU        0.219849    0.302016    0.232479     0.007504
PD661   PD        0.220839    0.334804    0.267808     0.005394
PD662   PD        0.256376    0.301283    0.265405     0.005394
AU663   AU        0.255070    0.334612    0.232496     0.007504
AU664   AU        0.291076    0.301462    0.234680     0.007504
AU665   AU        0.291188    0.333984    0.266031     0.007504
AU666   AU        0.326197    0.301944    0.268684     0.007504
AU667   AU        0.325863    0.333979    0.232998     0.007504
AU668   AU        0.360026    0.301084    0.233860     0.007504
AU669   AU        0.364208    0.334135    0.266002     0.007504
AU670   AU        0.397585    0.302508    0.265706     0.007504
AU671   AU        0.398150    0.335369    0.233198     0.007504
AU672   AU        0.433506    0.299320    0.235340     0.007504
AU673   AU        0.431689    0.334816    0.267736     0.007504
AU674   AU        0.470632    0.301180    0.267253     0.007504
AU675   AU        0.471961    0.333818    0.235107     0.007504
AU676   AU        0.507800    0.300278    0.233526     0.007504
AU677   AU        0.506899    0.332410    0.267469     0.007504
AU678   AU        0.544131    0.303127    0.266325     0.007504
AU679   AU        0.541571    0.334565    0.234156     0.007504
PD680   PD        0.579831    0.300444    0.233859     0.005394
AU681   AU        0.578306    0.333592    0.265315     0.007504
AU682   AU        0.614444    0.299271    0.266215     0.007504
AU683   AU        0.615106    0.333471    0.236528     0.007504
PD684   PD        0.650315    0.297322    0.234542     0.005394
AU685   AU        0.650476    0.333648    0.268717     0.007504
PD686   PD        0.685237    0.302534    0.268553     0.005394
PD687   PD        0.684796    0.332769    0.235092     0.005394
PD688   PD        0.723642    0.299488    0.232966     0.005394
AU689   AU        0.721189    0.334194    0.269314     0.007504
AU690   AU        0.756368    0.303700    0.267955     0.007504
PD691   PD        0.755268    0.335257    0.234795     0.005394
PD692   PD        0.790452    0.337669    0.267045     0.005394
PD693   PD        0.046461    0.367192    0.271679     0.005394
PD694   PD        0.081455    0.365328    0.232925     0.005394
PD695   PD        0.076273    0.403158    0.268187     0.005394
PD696   PD        0.113377    0.365651    0.266819     0.005394
PD697   PD        0.112673    0.401168    0.234399     0.005394
AU698   AU        0.148552    0.366298    0.233050     0.007504
AU699   AU        0.147033    0.401581    0.270364     0.007504
PD700   PD        0.183241    0.370319    0.266815     0.005394
AU701   AU        0.184602    0.400956    0.234258     0.007504
PD702   PD        0.219650    0.367911    0.235210     0.005394
AU703   AU        0.219050    0.401021    0.265173     0.007504
AU704   AU        0.255683    0.368269    0.267608     0.007504
AU705   AU        0.256164    0.400072    0.234670     0.007504
AU706   AU        0.289295    0.365920    0.234130     0.007504
AU707   AU        0.291447    0.401666    0.267943     0.007504
AU708   AU        0.327029    0.367690    0.266591     0.007504
AU709   AU        0.325326    0.401698    0.233799     0.007504
AU710   AU        0.361487    0.366532    0.232325     0.007504
AU711   AU        0.362183    0.400409    0.265020     0.007504
AU712   AU        0.398815    0.368614    0.267450     0.007504
AU713   AU        0.399238    0.400421    0.233537     0.007504
AU714   AU        0.436083    0.367662    0.234307     0.007504
AU715   AU        0.434078    0.401325    0.266200     0.007504
AU716   AU        0.469804    0.364981    0.266661     0.007504
AU717   AU        0.469549    0.401324    0.232148     0.007504
AU718   AU        0.506713    0.367053    0.235290     0.007504
AU719   AU        0.507184    0.400703    0.265497     0.007504
AU720   AU        0.545107    0.368350    0.265350     0.007504
AU721   AU        0.544410    0.402392    0.232079     0.007504
AU722   AU        0.576823    0.367350    0.233770     0.007504
AU723   AU        0.579869    0.401661    0.267594     0.007504
AU724   AU        0.613489    0.369474    0.266835     0.007504
AU725   AU        0.614406    0.402473    0.232246     0.007504
PD726   PD        0.651137    0.365703    0.235963     0.005394
AU727   AU        0.650431    0.401183    0.269363     0.007504
AU728   AU        0.684843    0.369633    0.268797     0.007504
AU729   AU        0.686574    0.400650    0.235114     0.007504
PD730   PD        0.719226    0.366832    0.236443     0.005394
PD731   PD        0.721134    0.398920    0.269646     0.005394
AU732   AU        0.756156    0.365905    0.269206     0.007504
AU733   AU        0.753235    0.398553    0.235098     0.007504
PD734   PD        0.788882    0.367647    0.236343     0.005394
PD735   PD        0.788223    0.400889    0.268582     0.005394
PD736   PD        0.822285    0.334392    0.231205     0.005394
PD737   PD        0.041271    0.433089    0.269621     0.005394
PD738   PD        0.076922    0.433754    0.235279     0.005394
PD739   PD        0.079589    0.467686    0.268826     0.005394
AU740   AU        0.112789    0.433297    0.267927     0.007504
PD741   PD        0.116154    0.466492    0.234156     0.005394
PD742   PD        0.149013    0.435815    0.237740     0.005394
PD743   PD        0.149101    0.466276    0.269131     0.005394
PD744   PD        0.186070    0.434529    0.266675     0.005394
AU745   AU        0.188021    0.467924    0.234672     0.007504
AU746   AU        0.219642    0.433284    0.232533     0.007504
AU747   AU        0.221546    0.465629    0.266644     0.007504
AU748   AU        0.256487    0.433163    0.268217     0.007504
AU749   AU        0.253411    0.467612    0.232208     0.007504
AU750   AU        0.291264    0.437611    0.234605     0.007504
AU751   AU        0.290288    0.470348    0.268713     0.007504
AU752   AU        0.325269    0.436540    0.268304     0.007504
AU753   AU        0.327488    0.468987    0.231620     0.007504
AU754   AU        0.360303    0.435359    0.234401     0.007504
AU755   AU        0.364171    0.469279    0.266077     0.007504
AU756   AU        0.398246    0.433890    0.265694     0.007504
AU757   AU        0.401392    0.469760    0.234576     0.007504
AU758   AU        0.436543    0.435279    0.232696     0.007504
AU759   AU        0.435686    0.468134    0.267454     0.007504
AU760   AU        0.471243    0.433149    0.266068     0.007504
AU761   AU        0.472023    0.470508    0.234271     0.007504
AU762   AU        0.508413    0.433621    0.231793     0.007504
AU763   AU        0.507971    0.470875    0.267638     0.007504
AU764   AU        0.540813    0.433543    0.266799     0.007504
AU765   AU        0.540946    0.469407    0.233853     0.007504
AU766   AU        0.578558    0.433397    0.232800     0.007504
AU767   AU        0.577686    0.467705    0.267425     0.007504
AU768   AU        0.616065    0.433093    0.267019     0.007504
PD769   PD        0.616286    0.468803    0.231563     0.005394
AU770   AU        0.651382    0.433951    0.234985     0.007504
PD771   PD        0.646297    0.466776    0.267866     0.005394
PD772   PD        0.686838    0.435072    0.266973     0.005394
PD773   PD        0.686010    0.470381    0.232164     0.005394
PD774   PD        0.719587    0.433963    0.232827     0.005394
PD775   PD        0.721532    0.468733    0.268652     0.005394
PD776   PD        0.754966    0.432952    0.267412     0.005394
PD777   PD        0.756758    0.467512    0.235180     0.005394
PD778   PD        0.789265    0.434997    0.235690     0.005394
PD779   PD        0.827114    0.459792    0.230441     0.005394
PD780   PD        0.827429    0.431409    0.265165     0.005394
PD781   PD        0.006146    0.463377    0.268115     0.005394
PD782   PD        0.081885    0.499012    0.237250     0.005394
PD783   PD        0.074476    0.535262    0.266992     0.005394
PD784   PD        0.111130    0.502526    0.269934     0.005394
PD785   PD        0.116445    0.532467    0.234354     0.005394
PD786   PD        0.149760    0.500300    0.233370     0.005394
AU787   AU        0.148860    0.533094    0.267657     0.007504
PD788   PD        0.184620    0.501537    0.265205     0.005394
PD789   PD        0.186553    0.538253    0.233176     0.005394
PD790   PD        0.220188    0.499832    0.234329     0.005394
PD791   PD        0.220405    0.534758    0.266930     0.005394
AU792   AU        0.255397    0.501225    0.266099     0.007504
AU793   AU        0.255471    0.535615    0.232704     0.007504
AU794   AU        0.289989    0.502179    0.233948     0.007504
AU795   AU        0.292433    0.534732    0.267067     0.007504
AU796   AU        0.325924    0.500671    0.266533     0.007504
AU797   AU        0.328110    0.533930    0.233647     0.007504
AU798   AU        0.363181    0.501305    0.232272     0.007504
AU799   AU        0.361413    0.533407    0.268225     0.007504
AU800   AU        0.398974    0.502884    0.268069     0.007504
AU801   AU        0.398678    0.536670    0.233400     0.007504
AU802   AU        0.435986    0.503574    0.232825     0.007504
AU803   AU        0.436773    0.534472    0.266571     0.007504
AU804   AU        0.471540    0.502118    0.269529     0.007504
AU805   AU        0.472881    0.535133    0.232502     0.007504
AU806   AU        0.506454    0.502869    0.233350     0.007504
AU807   AU        0.507211    0.536714    0.265865     0.007504
AU808   AU        0.543000    0.503919    0.265455     0.007504
AU809   AU        0.543520    0.535788    0.231526     0.007504
AU810   AU        0.579378    0.504044    0.233583     0.007504
AU811   AU        0.579098    0.535601    0.267411     0.007504
AU812   AU        0.616028    0.499946    0.266987     0.007504
AU813   AU        0.614973    0.535193    0.235883     0.007504
AU814   AU        0.650769    0.504052    0.234930     0.007504
AU815   AU        0.650933    0.536241    0.268258     0.007504
AU816   AU        0.686159    0.506347    0.268231     0.007504
AU817   AU        0.685062    0.535573    0.233926     0.007504
PD818   PD        0.719561    0.504670    0.233147     0.005394
AU819   AU        0.721182    0.536509    0.269893     0.007504
PD820   PD        0.755084    0.500914    0.266664     0.005394
PD821   PD        0.756368    0.532953    0.238075     0.005394
PD822   PD        0.822898    0.535405    0.231937     0.005394
PD823   PD        0.788234    0.533224    0.269487     0.005394
PD824   PD        0.828782    0.504957    0.271126     0.005394
PD825   PD        0.043663    0.606373    0.230928     0.005394
PD826   PD        0.116681    0.566201    0.268811     0.005394
PD827   PD        0.117241    0.599062    0.234421     0.005394
PD828   PD        0.150466    0.565390    0.234506     0.005394
PD829   PD        0.147301    0.599983    0.266360     0.005394
PD830   PD        0.184399    0.567065    0.267510     0.005394
PD831   PD        0.184541    0.599325    0.232483     0.005394
PD832   PD        0.221906    0.569064    0.235518     0.005394
PD833   PD        0.221470    0.600732    0.268753     0.005394
AU834   AU        0.259557    0.566875    0.266455     0.007504
PD835   PD        0.256203    0.600407    0.233116     0.005394
AU836   AU        0.292252    0.566775    0.233387     0.007504
AU837   AU        0.293567    0.599082    0.265176     0.007504
AU838   AU        0.325804    0.565586    0.267763     0.007504
AU839   AU        0.327575    0.601398    0.231213     0.007504
AU840   AU        0.360922    0.567781    0.232676     0.007504
AU841   AU        0.361817    0.597802    0.265465     0.007504
PD842   PD        0.397499    0.567749    0.265341     0.005394
AU843   AU        0.397554    0.598896    0.232262     0.007504
AU844   AU        0.435334    0.569461    0.234237     0.007504
PD845   PD        0.436125    0.601251    0.265975     0.005394
AU846   AU        0.471347    0.566943    0.265335     0.007504
AU847   AU        0.472913    0.600023    0.232280     0.007504
AU848   AU        0.506460    0.567344    0.231665     0.007504
AU849   AU        0.506553    0.600388    0.266663     0.007504
AU850   AU        0.543343    0.568749    0.267047     0.007504
AU851   AU        0.542279    0.597999    0.231304     0.007504
AU852   AU        0.578643    0.567671    0.235657     0.007504
AU853   AU        0.578807    0.601095    0.266959     0.007504
AU854   AU        0.613675    0.568526    0.266815     0.007504
PD855   PD        0.614871    0.599610    0.231984     0.005394
AU856   AU        0.649520    0.568532    0.232519     0.007504
AU857   AU        0.648315    0.601068    0.265612     0.007504
AU858   AU        0.686334    0.568079    0.267714     0.007504
PD859   PD        0.687821    0.600993    0.232877     0.005394
PD860   PD        0.723645    0.566518    0.235682     0.005394
PD861   PD        0.721044    0.602932    0.270089     0.005394
PD862   PD        0.757424    0.569617    0.270361     0.005394
PD863   PD        0.755355    0.601790    0.239034     0.005394
PD864   PD        0.789949    0.601813    0.268556     0.005394
PD865   PD        0.116047    0.637327    0.267715     0.005394
PD866   PD        0.154507    0.632825    0.234516     0.005394
PD867   PD        0.157579    0.679314    0.270749     0.005394
PD868   PD        0.187251    0.632445    0.263681     0.005394
PD869   PD        0.188745    0.666107    0.227301     0.005394
PD870   PD        0.219729    0.633762    0.231832     0.005394
PD871   PD        0.224076    0.669137    0.265493     0.005394
PD872   PD        0.254097    0.634300    0.260768     0.005394
AU873   AU        0.255635    0.666286    0.230327     0.007504
PD874   PD        0.293959    0.634334    0.229653     0.005394
PD875   PD        0.292196    0.665428    0.262165     0.005394
AU876   AU        0.328092    0.632441    0.265871     0.007504
PD877   PD        0.325481    0.665894    0.231463     0.005394
PD878   PD        0.360484    0.634363    0.231846     0.005394
PD879   PD        0.364000    0.669130    0.262959     0.005394
PD880   PD        0.396265    0.632272    0.261297     0.005394
PD881   PD        0.398602    0.668237    0.230696     0.005394
PD882   PD        0.434227    0.631374    0.232375     0.005394
PD883   PD        0.436948    0.672264    0.274121     0.005394
PD884   PD        0.473429    0.634462    0.267627     0.005394
PD885   PD        0.475062    0.671339    0.235894     0.005394
PD886   PD        0.509404    0.634089    0.232751     0.005394
AU887   AU        0.508528    0.671321    0.270701     0.007504
PD888   PD        0.543289    0.635787    0.265538     0.005394
PD889   PD        0.545207    0.670299    0.235338     0.005394
PD890   PD        0.577617    0.631602    0.232268     0.005394
PD891   PD        0.579678    0.672320    0.271316     0.005394
AU892   AU        0.615061    0.634588    0.265972     0.007504
PD893   PD        0.617236    0.670939    0.235430     0.005394
PD894   PD        0.648402    0.632874    0.233081     0.005394
AU895   AU        0.650410    0.667907    0.269549     0.007504
PD896   PD        0.685166    0.634317    0.271280     0.005394
PD897   PD        0.681636    0.666660    0.235679     0.005394
PD898   PD        0.723618    0.673605    0.202637     0.005394
PD899   PD        0.718224    0.665059    0.269830     0.005394
PD900   PD        0.754478    0.635894    0.271707     0.005394
PD901   PD        0.187709    0.703037    0.261678     0.005394
PD902   PD        0.222695    0.700483    0.227492     0.005394
PD903   PD        0.213794    0.746121    0.280380     0.005394
PD904   PD        0.257579    0.702372    0.259965     0.005394
PD905   PD        0.257418    0.732017    0.231191     0.005394
PD906   PD        0.292792    0.700696    0.228871     0.005394
PD907   PD        0.295003    0.733559    0.260256     0.005394
PD908   PD        0.328633    0.703691    0.263456     0.005394
PD909   PD        0.333083    0.738199    0.232798     0.005394
PD910   PD        0.364004    0.702572    0.232946     0.005394
PD911   PD        0.365097    0.734772    0.267692     0.005394
AU912   AU        0.401117    0.701573    0.267055     0.007504
PD913   PD        0.402042    0.736031    0.237927     0.005394
PD914   PD        0.436016    0.703133    0.235999     0.005394
AU915   AU        0.437929    0.734907    0.266662     0.007504
PD916   PD        0.476177    0.705513    0.270878     0.005394
AU917   AU        0.473918    0.734234    0.235523     0.007504
PD918   PD        0.508234    0.705177    0.234222     0.005394
AU919   AU        0.510482    0.735857    0.267619     0.007504
AU920   AU        0.544401    0.703505    0.269067     0.007504
PD921   PD        0.544635    0.734193    0.235826     0.005394
PD922   PD        0.579289    0.702069    0.230588     0.005394
PD923   PD        0.576801    0.734363    0.268370     0.005394
PD924   PD        0.611403    0.701103    0.268192     0.005394
PD925   PD        0.615757    0.731878    0.239698     0.005394
PD926   PD        0.653302    0.699489    0.231865     0.005394
PD927   PD        0.655145    0.768257    0.269757     0.005394
PD928   PD        0.683962    0.701733    0.268666     0.005394
PD929   PD        0.269775    0.777324    0.263257     0.005394
PD930   PD        0.291921    0.766836    0.230099     0.005394
PD931   PD        0.362831    0.767122    0.236309     0.005394
PD932   PD        0.331614    0.799547    0.227203     0.005394
PD933   PD        0.439791    0.766182    0.233527     0.005394
PD934   PD        0.474011    0.802018    0.233514     0.005394
PD935   PD        0.435825    0.799541    0.268202     0.005394
PD936   PD        0.473605    0.766032    0.268446     0.005394
PD937   PD        0.506918    0.766568    0.236148     0.005394
PD938   PD        0.441145    0.836410    0.301980     0.005394
PD939   PD        0.578229    0.767324    0.238808     0.005394
PD940   PD        0.613415    0.801660    0.301582     0.005394
PD941   PD        0.290526    0.036303    0.363880     0.005394
PD942   PD        0.329804    0.071869    0.301395     0.005394
PD943   PD        0.361460    0.072123    0.337524     0.005394
PD944   PD        0.400698    0.071594    0.302290     0.005394
PD945   PD        0.433861    0.072245    0.336025     0.005394
PD946   PD        0.469811    0.071491    0.306010     0.005394
PD947   PD        0.503935    0.070565    0.337504     0.005394
PD948   PD        0.543199    0.072376    0.300665     0.005394
PD949   PD        0.577850    0.068528    0.335185     0.005394
PD950   PD        0.184264    0.137353    0.301410     0.005394
PD951   PD        0.218228    0.136471    0.333996     0.005394
PD952   PD        0.255059    0.102412    0.335917     0.005394
PD953   PD        0.252747    0.137952    0.299662     0.005394
PD954   PD        0.290216    0.102939    0.298200     0.005394
PD955   PD        0.287056    0.134927    0.333789     0.005394
PD956   PD        0.326696    0.101839    0.335138     0.005394
AU957   AU        0.326426    0.136704    0.302160     0.007504
AU958   AU        0.364464    0.104226    0.301825     0.007504
PD959   PD        0.362151    0.133686    0.333506     0.005394
PD960   PD        0.398887    0.104382    0.335949     0.005394
PD961   PD        0.397840    0.136882    0.301134     0.005394
PD962   PD        0.436605    0.103029    0.302508     0.005394
PD963   PD        0.435255    0.137239    0.334882     0.005394
PD964   PD        0.469058    0.104540    0.338383     0.005394
PD965   PD        0.472585    0.133147    0.302992     0.005394
PD966   PD        0.507036    0.102158    0.304821     0.005394
AU967   AU        0.506858    0.135007    0.335941     0.007504
PD968   PD        0.545830    0.101608    0.334856     0.005394
PD969   PD        0.541206    0.133641    0.301660     0.005394
PD970   PD        0.577542    0.103737    0.301297     0.005394
PD971   PD        0.578867    0.133899    0.334150     0.005394
PD972   PD        0.611031    0.100111    0.333205     0.005394
PD973   PD        0.614626    0.137025    0.304174     0.005394
PD974   PD        0.648070    0.134523    0.334911     0.005394
PD975   PD        0.682455    0.133215    0.302248     0.005394
PD976   PD        0.113999    0.201664    0.304730     0.005394
PD977   PD        0.147674    0.167887    0.301367     0.005394
PD978   PD        0.147491    0.200430    0.334748     0.005394
PD979   PD        0.183948    0.168604    0.336119     0.005394
PD980   PD        0.182414    0.200043    0.304070     0.005394
PD981   PD        0.218716    0.169601    0.298539     0.005394
PD982   PD        0.220640    0.202959    0.334853     0.005394
AU983   AU        0.255077    0.169583    0.334337     0.007504
PD984   PD        0.255061    0.200487    0.298409     0.005394
PD985   PD        0.292991    0.171166    0.301634     0.005394
AU986   AU        0.287596    0.202342    0.333470     0.007504
AU987   AU        0.325967    0.169716    0.332107     0.007504
PD988   PD        0.326271    0.201284    0.300985     0.005394
AU989   AU        0.361309    0.165850    0.301175     0.007504
PD990   PD        0.365608    0.201798    0.331963     0.005394
PD991   PD        0.398330    0.167659    0.331574     0.005394
PD992   PD        0.398703    0.199780    0.299893     0.005394
AU993   AU        0.434138    0.169413    0.300168     0.007504
AU994   AU        0.436512    0.201058    0.333200     0.007504
PD995   PD        0.473089    0.167221    0.334282     0.005394
AU996   AU        0.469396    0.201183    0.301169     0.007504
PD997   PD        0.502474    0.166722    0.301892     0.005394
AU998   AU        0.507675    0.200468    0.335704     0.007504
AU999   AU        0.542891    0.167904    0.334918     0.007504
AU1000   AU        0.543783    0.200606    0.302398     0.007504
AU1001   AU        0.577434    0.168736    0.302149     0.007504
AU1002   AU        0.578404    0.201709    0.334656     0.007504
AU1003   AU        0.614533    0.169970    0.334683     0.007504
AU1004   AU        0.611816    0.201297    0.301094     0.007504
AU1005   AU        0.649794    0.168703    0.302484     0.007504
AU1006   AU        0.649391    0.201660    0.333018     0.007504
PD1007   PD        0.686252    0.167599    0.334740     0.005394
PD1008   PD        0.683862    0.200357    0.302996     0.005394
PD1009   PD        0.717566    0.164467    0.300991     0.005394
PD1010   PD        0.720103    0.201850    0.334274     0.005394
PD1011   PD        0.790263    0.197177    0.334210     0.005394
AU1012   AU        0.078261    0.267291    0.337537     0.007504
PD1013   PD        0.111723    0.236844    0.338581     0.005394
PD1014   PD        0.114203    0.268142    0.300510     0.005394
PD1015   PD        0.147440    0.236716    0.301750     0.005394
PD1016   PD        0.148265    0.267677    0.333909     0.005394
AU1017   AU        0.182906    0.234902    0.334737     0.007504
AU1018   AU        0.181346    0.268545    0.301722     0.007504
PD1019   PD        0.217226    0.236429    0.301265     0.005394
PD1020   PD        0.217109    0.267857    0.337148     0.005394
AU1021   AU        0.254442    0.234708    0.335043     0.007504
AU1022   AU        0.253530    0.268022    0.301441     0.007504
AU1023   AU        0.290955    0.235696    0.300373     0.007504
AU1024   AU        0.290530    0.268561    0.335265     0.007504
AU1025   AU        0.324853    0.234239    0.334829     0.007504
AU1026   AU        0.326873    0.266859    0.300379     0.007504
AU1027   AU        0.362492    0.236334    0.301883     0.007504
AU1028   AU        0.364028    0.268100    0.334121     0.007504
AU1029   AU        0.399464    0.235913    0.335300     0.007504
AU1030   AU        0.401131    0.268265    0.300291     0.007504
AU1031   AU        0.434146    0.232172    0.299509     0.007504
AU1032   AU        0.434819    0.266927    0.334321     0.007504
PD1033   PD        0.472978    0.233297    0.331810     0.005394
AU1034   AU        0.469542    0.268986    0.300677     0.007504
AU1035   AU        0.508806    0.235201    0.299282     0.007504
AU1036   AU        0.508613    0.268161    0.333488     0.007504
AU1037   AU        0.543396    0.235754    0.333430     0.007504
AU1038   AU        0.542153    0.267981    0.300144     0.007504
PD1039   PD        0.580664    0.235920    0.298692     0.005394
AU1040   AU        0.577676    0.271167    0.334062     0.007504
PD1041   PD        0.614668    0.234505    0.335795     0.005394
PD1042   PD        0.613800    0.268497    0.301770     0.005394
PD1043   PD        0.648675    0.234085    0.300136     0.005394
PD1044   PD        0.649112    0.268218    0.334406     0.005394
PD1045   PD        0.687413    0.234355    0.331343     0.005394
PD1046   PD        0.686598    0.268516    0.302590     0.005394
PD1047   PD        0.719632    0.234876    0.301043     0.005394
AU1048   AU        0.722077    0.267941    0.333768     0.007504
PD1049   PD        0.757815    0.233682    0.331073     0.005394
AU1050   AU        0.756828    0.268909    0.299643     0.007504
PD1051   PD        0.789821    0.267438    0.334669     0.005394
PD1052   PD        0.041341    0.301888    0.337039     0.005394
PD1053   PD        0.044726    0.333632    0.303333     0.005394
PD1054   PD        0.077528    0.299319    0.302152     0.005394
PD1055   PD        0.080303    0.333890    0.336531     0.005394
PD1056   PD        0.113755    0.301069    0.334617     0.005394
PD1057   PD        0.112758    0.334655    0.299534     0.005394
AU1058   AU        0.146997    0.300772    0.299233     0.007504
AU1059   AU        0.148892    0.333453    0.334981     0.007504
PD1060   PD        0.180608    0.301025    0.334344     0.005394
PD1061   PD        0.181230    0.336222    0.302779     0.005394
PD1062   PD        0.220842    0.303807    0.302240     0.005394
AU1063   AU        0.216837    0.335492    0.334152     0.007504
AU1064   AU        0.256526    0.301548    0.335023     0.007504
AU1065   AU        0.257185    0.332647    0.302991     0.007504
AU1066   AU        0.291323    0.300403    0.302069     0.007504
AU1067   AU        0.290612    0.332556    0.335856     0.007504
AU1068   AU        0.326502    0.299965    0.335314     0.007504
AU1069   AU        0.327131    0.334822    0.301556     0.007504
AU1070   AU        0.361209    0.300137    0.300512     0.007504
AU1071   AU        0.362867    0.333004    0.334181     0.007504
AU1072   AU        0.398360    0.300780    0.333943     0.007504
AU1073   AU        0.399810    0.335650    0.301268     0.007504
AU1074   AU        0.434678    0.301959    0.299734     0.007504
AU1075   AU        0.433610    0.335362    0.332837     0.007504
AU1076   AU        0.469545    0.300316    0.333765     0.007504
AU1077   AU        0.470597    0.334936    0.302332     0.007504
AU1078   AU        0.507914    0.301533    0.301003     0.007504
AU1079   AU        0.508786    0.336607    0.333249     0.007504
AU1080   AU        0.542548    0.301381    0.335662     0.007504
AU1081   AU        0.544538    0.334078    0.299955     0.007504
AU1082   AU        0.580653    0.300610    0.298676     0.007504
AU1083   AU        0.579093    0.337690    0.336328     0.007504
AU1084   AU        0.614535    0.301835    0.335391     0.007504
AU1085   AU        0.612336    0.333724    0.299887     0.007504
AU1086   AU        0.649817    0.300401    0.302072     0.007504
AU1087   AU        0.650830    0.336052    0.334063     0.007504
AU1088   AU        0.688590    0.303615    0.334214     0.007504
AU1089   AU        0.685183    0.335073    0.302109     0.007504
AU1090   AU        0.720697    0.302466    0.302455     0.007504
AU1091   AU        0.721736    0.336030    0.334038     0.007504
PD1092   PD        0.757269    0.300890    0.334373     0.005394
AU1093   AU        0.755583    0.332832    0.301782     0.007504
PD1094   PD        0.788803    0.299929    0.300219     0.005394
PD1095   PD        0.792563    0.336990    0.336275     0.005394
PD1096   PD        0.824563    0.297221    0.333339     0.005394
PD1097   PD        0.867115    0.307909    0.299942     0.005394
PD1098   PD        0.045499    0.367251    0.335098     0.005394
PD1099   PD        0.043185    0.403130    0.300616     0.005394
PD1100   PD        0.078297    0.367950    0.302675     0.005394
PD1101   PD        0.079208    0.403310    0.337409     0.005394
PD1102   PD        0.115491    0.365616    0.336652     0.005394
AU1103   AU        0.113383    0.402620    0.303749     0.007504
PD1104   PD        0.146884    0.367363    0.302513     0.005394
AU1105   AU        0.146600    0.401181    0.334792     0.007504
AU1106   AU        0.184491    0.368910    0.336355     0.007504
PD1107   PD        0.184177    0.400971    0.301922     0.005394
AU1108   AU        0.219844    0.367657    0.302224     0.007504
AU1109   AU        0.217665    0.402732    0.333927     0.007504
AU1110   AU        0.253826    0.368655    0.334984     0.007504
AU1111   AU        0.254882    0.401176    0.299883     0.007504
AU1112   AU        0.289888    0.368953    0.300783     0.007504
AU1113   AU        0.288770    0.399693    0.335146     0.007504
AU1114   AU        0.326772    0.367305    0.334568     0.007504
AU1115   AU        0.325993    0.402038    0.300942     0.007504
AU1116   AU        0.362987    0.368207    0.301204     0.007504
AU1117   AU        0.360602    0.402170    0.334859     0.007504
AU1118   AU        0.398547    0.369590    0.334679     0.007504
AU1119   AU        0.399132    0.401255    0.299875     0.007504
AU1120   AU        0.436020    0.370864    0.300399     0.007504
AU1121   AU        0.436017    0.400757    0.335753     0.007504
AU1122   AU        0.471781    0.368568    0.333612     0.007504
AU1123   AU        0.472927    0.401736    0.300038     0.007504
AU1124   AU        0.509554    0.366961    0.298320     0.007504
AU1125   AU        0.507722    0.402608    0.331870     0.007504
AU1126   AU        0.543580    0.367984    0.334236     0.007504
AU1127   AU        0.542640    0.401153    0.300293     0.007504
AU1128   AU        0.579633    0.369255    0.300571     0.007504
AU1129   AU        0.579968    0.401345    0.334467     0.007504
AU1130   AU        0.615501    0.366852    0.334899     0.007504
AU1131   AU        0.615294    0.402466    0.301009     0.007504
AU1132   AU        0.649911    0.368626    0.301841     0.007504
AU1133   AU        0.649432    0.398927    0.334065     0.007504
AU1134   AU        0.686402    0.368398    0.333166     0.007504
AU1135   AU        0.687048    0.399836    0.300720     0.007504
AU1136   AU        0.723331    0.367856    0.301950     0.007504
AU1137   AU        0.720292    0.403154    0.335499     0.007504
AU1138   AU        0.755485    0.367652    0.334679     0.007504
PD1139   PD        0.756809    0.401313    0.301738     0.005394
PD1140   PD        0.789272    0.367839    0.301819     0.005394
AU1141   AU        0.791297    0.401418    0.333954     0.007504
PD1142   PD        0.861804    0.294199    0.361672     0.005394
PD1143   PD        0.823910    0.400459    0.300395     0.005394
PD1144   PD        0.045320    0.432926    0.334041     0.005394
PD1145   PD        0.045275    0.468397    0.302213     0.005394
PD1146   PD        0.076142    0.436937    0.301224     0.005394
PD1147   PD        0.079636    0.467979    0.335601     0.005394
AU1148   AU        0.113173    0.435953    0.335925     0.007504
PD1149   PD        0.114755    0.467401    0.301840     0.005394
AU1150   AU        0.149149    0.432811    0.301034     0.007504
PD1151   PD        0.148493    0.467726    0.333610     0.005394
AU1152   AU        0.182181    0.433198    0.335987     0.007504
AU1153   AU        0.182609    0.466593    0.303059     0.007504
AU1154   AU        0.221605    0.433450    0.301154     0.007504
AU1155   AU        0.218830    0.468894    0.334504     0.007504
AU1156   AU        0.255700    0.436295    0.335755     0.007504
AU1157   AU        0.255494    0.467789    0.300653     0.007504
AU1158   AU        0.289850    0.434520    0.302025     0.007504
AU1159   AU        0.290975    0.469898    0.334853     0.007504
AU1160   AU        0.325097    0.434534    0.334894     0.007504
AU1161   AU        0.326354    0.470208    0.302502     0.007504
AU1162   AU        0.361315    0.433944    0.301837     0.007504
AU1163   AU        0.362700    0.469746    0.333564     0.007504
AU1164   AU        0.400244    0.435443    0.332569     0.007504
AU1165   AU        0.399086    0.467660    0.297771     0.007504
AU1166   AU        0.435627    0.434805    0.301264     0.007504
AU1167   AU        0.433573    0.470444    0.334769     0.007504
AU1168   AU        0.471206    0.434064    0.333934     0.007504
AU1169   AU        0.472954    0.468494    0.301253     0.007504
AU1170   AU        0.507052    0.435216    0.302497     0.007504
AU1171   AU        0.508678    0.467561    0.335508     0.007504
AU1172   AU        0.545309    0.435089    0.334099     0.007504
AU1173   AU        0.541413    0.469380    0.300541     0.007504
AU1174   AU        0.578148    0.434411    0.300317     0.007504
AU1175   AU        0.581369    0.470248    0.334075     0.007504
AU1176   AU        0.617455    0.435365    0.333833     0.007504
AU1177   AU        0.616134    0.467951    0.302637     0.007504
AU1178   AU        0.649814    0.434263    0.300360     0.007504
AU1179   AU        0.651077    0.468569    0.335884     0.007504
AU1180   AU        0.683733    0.434684    0.335242     0.007504
PD1181   PD        0.684276    0.467775    0.300443     0.005394
PD1182   PD        0.720787    0.434694    0.303469     0.005394
AU1183   AU        0.722248    0.469093    0.334569     0.007504
PD1184   PD        0.758535    0.436073    0.333346     0.005394
PD1185   PD        0.756555    0.466873    0.299522     0.005394
AU1186   AU        0.792838    0.433449    0.299723     0.007504
PD1187   PD        0.790515    0.467086    0.334487     0.005394
PD1188   PD        0.827086    0.435968    0.333922     0.005394
PD1189   PD        0.826398    0.465026    0.297024     0.005394
PD1190   PD        0.043597    0.501376    0.335589     0.005394
PD1191   PD        0.006715    0.568332    0.303731     0.005394
PD1192   PD        0.080960    0.500735    0.302650     0.005394
PD1193   PD        0.080325    0.533935    0.335528     0.005394
AU1194   AU        0.114628    0.498937    0.335256     0.007504
PD1195   PD        0.113046    0.533094    0.300349     0.005394
AU1196   AU        0.148955    0.500590    0.300346     0.007504
PD1197   PD        0.149621    0.537647    0.332538     0.005394
AU1198   AU        0.182546    0.502306    0.335465     0.007504
PD1199   PD        0.185467    0.533775    0.301351     0.005394
AU1200   AU        0.220222    0.500102    0.300057     0.007504
AU1201   AU        0.219727    0.534142    0.336333     0.007504
AU1202   AU        0.254457    0.502686    0.335229     0.007504
AU1203   AU        0.254445    0.535059    0.302762     0.007504
AU1204   AU        0.290027    0.503254    0.302153     0.007504
AU1205   AU        0.291025    0.533214    0.335483     0.007504
AU1206   AU        0.326788    0.502561    0.337322     0.007504
AU1207   AU        0.328728    0.532794    0.302614     0.007504
AU1208   AU        0.363386    0.499845    0.300351     0.007504
AU1209   AU        0.361736    0.535195    0.334697     0.007504
AU1210   AU        0.399134    0.504395    0.333292     0.007504
AU1211   AU        0.396062    0.535333    0.300997     0.007504
AU1212   AU        0.434153    0.503431    0.299766     0.007504
AU1213   AU        0.434033    0.534593    0.336132     0.007504
AU1214   AU        0.471981    0.502514    0.335506     0.007504
AU1215   AU        0.471032    0.534143    0.301190     0.007504
AU1216   AU        0.508148    0.501996    0.301660     0.007504
AU1217   AU        0.508638    0.534813    0.333306     0.007504
AU1218   AU        0.544898    0.503478    0.334592     0.007504
AU1219   AU        0.543545    0.537815    0.301662     0.007504
AU1220   AU        0.579171    0.503684    0.300374     0.007504
AU1221   AU        0.578167    0.537194    0.333854     0.007504
AU1222   AU        0.616058    0.502405    0.334334     0.007504
AU1223   AU        0.614017    0.536444    0.300714     0.007504
AU1224   AU        0.649625    0.501210    0.300041     0.007504
AU1225   AU        0.647989    0.537587    0.333088     0.007504
AU1226   AU        0.684727    0.503893    0.335273     0.007504
AU1227   AU        0.686607    0.536246    0.301039     0.007504
AU1228   AU        0.721663    0.503631    0.302302     0.007504
AU1229   AU        0.720685    0.536993    0.334990     0.007504
PD1230   PD        0.757232    0.502405    0.334327     0.005394
PD1231   PD        0.756238    0.534825    0.304410     0.005394
PD1232   PD        0.790904    0.503160    0.299401     0.005394
PD1233   PD        0.789489    0.536080    0.333826     0.005394
PD1234   PD        0.824830    0.502829    0.337121     0.005394
PD1235   PD        0.825377    0.537465    0.300672     0.005394
PD1236   PD        0.043577    0.570169    0.335656     0.005394
PD1237   PD        0.079676    0.566890    0.302224     0.005394
PD1238   PD        0.082055    0.598798    0.336275     0.005394
PD1239   PD        0.113913    0.567975    0.336758     0.005394
PD1240   PD        0.116654    0.597026    0.299451     0.005394
PD1241   PD        0.151156    0.568199    0.300567     0.005394
PD1242   PD        0.150319    0.600791    0.335932     0.005394
PD1243   PD        0.182793    0.568411    0.335536     0.005394
PD1244   PD        0.187153    0.597690    0.302454     0.005394
PD1245   PD        0.219721    0.565996    0.303446     0.005394
PD1246   PD        0.221408    0.602199    0.335895     0.005394
AU1247   AU        0.255359    0.567480    0.334490     0.007504
PD1248   PD        0.256364    0.599180    0.303076     0.005394
AU1249   AU        0.290006    0.566889    0.301558     0.007504
PD1250   PD        0.293960    0.598977    0.334449     0.005394
AU1251   AU        0.326057    0.568267    0.334876     0.007504
AU1252   AU        0.327195    0.600426    0.297966     0.007504
AU1253   AU        0.360859    0.570265    0.300892     0.007504
PD1254   PD        0.360945    0.600825    0.336691     0.005394
AU1255   AU        0.396616    0.570189    0.335543     0.007504
PD1256   PD        0.399975    0.602428    0.299410     0.005394
PD1257   PD        0.435308    0.569176    0.303979     0.005394
PD1258   PD        0.435476    0.603806    0.337713     0.005394
AU1259   AU        0.472647    0.570385    0.335074     0.007504
AU1260   AU        0.473704    0.603390    0.302521     0.007504
AU1261   AU        0.506750    0.568150    0.298953     0.007504
AU1262   AU        0.509234    0.602796    0.334196     0.007504
AU1263   AU        0.541703    0.570167    0.334010     0.007504
PD1264   PD        0.543813    0.603227    0.300030     0.005394
AU1265   AU        0.577151    0.570266    0.300579     0.007504
AU1266   AU        0.578614    0.604247    0.333858     0.007504
PD1267   PD        0.613629    0.569550    0.333149     0.005394
AU1268   AU        0.615276    0.600764    0.299853     0.007504
AU1269   AU        0.651980    0.570743    0.300465     0.007504
PD1270   PD        0.649459    0.601891    0.332877     0.005394
AU1271   AU        0.686573    0.570393    0.335199     0.007504
PD1272   PD        0.686633    0.600370    0.302368     0.005394
AU1273   AU        0.720818    0.569490    0.301312     0.007504
AU1274   AU        0.722149    0.601839    0.334978     0.007504
PD1275   PD        0.755603    0.570475    0.334890     0.005394
AU1276   AU        0.755337    0.601540    0.303251     0.007504
PD1277   PD        0.790040    0.569152    0.302284     0.005394
PD1278   PD        0.792345    0.600745    0.334219     0.005394
PD1279   PD        0.825566    0.570434    0.333144     0.005394
PD1280   PD        0.113980    0.635101    0.337028     0.005394
PD1281   PD        0.109724    0.675486    0.311243     0.005394
PD1282   PD        0.153578    0.631848    0.299008     0.005394
PD1283   PD        0.146732    0.668675    0.339505     0.005394
PD1284   PD        0.181938    0.638432    0.340445     0.005394
PD1285   PD        0.181495    0.671546    0.309049     0.005394
PD1286   PD        0.213171    0.635462    0.307363     0.005394
PD1287   PD        0.219773    0.671357    0.337775     0.005394
PD1288   PD        0.251068    0.637279    0.339288     0.005394
PD1289   PD        0.255726    0.673559    0.306096     0.005394
PD1290   PD        0.291350    0.633209    0.295653     0.005394
AU1291   AU        0.290416    0.668698    0.342876     0.007504
PD1292   PD        0.324614    0.638661    0.342391     0.005394
PD1293   PD        0.324494    0.670812    0.296334     0.005394
PD1294   PD        0.364057    0.632301    0.297319     0.005394
PD1295   PD        0.362995    0.668683    0.337527     0.005394
PD1296   PD        0.404086    0.635664    0.337803     0.005394
PD1297   PD        0.398701    0.671797    0.302970     0.005394
PD1298   PD        0.440430    0.637227    0.301809     0.005394
AU1299   AU        0.437729    0.669689    0.335928     0.007504
AU1300   AU        0.471860    0.635354    0.338094     0.007504
AU1301   AU        0.474290    0.670323    0.304639     0.007504
AU1302   AU        0.508433    0.635687    0.301394     0.007504
AU1303   AU        0.509522    0.670366    0.335670     0.007504
AU1304   AU        0.545641    0.636187    0.335215     0.007504
AU1305   AU        0.545317    0.668571    0.302759     0.007504
AU1306   AU        0.577834    0.635831    0.299567     0.007504
PD1307   PD        0.580170    0.669769    0.336645     0.005394
PD1308   PD        0.613517    0.635843    0.336554     0.005394
PD1309   PD        0.613801    0.667538    0.301403     0.005394
PD1310   PD        0.650265    0.633734    0.302007     0.005394
PD1311   PD        0.649339    0.669759    0.335010     0.005394
PD1312   PD        0.684191    0.634835    0.336344     0.005394
PD1313   PD        0.685572    0.668727    0.302596     0.005394
AU1314   AU        0.721562    0.634775    0.302114     0.007504
PD1315   PD        0.718902    0.666381    0.337527     0.005394
AU1316   AU        0.754215    0.635749    0.333918     0.007504
PD1317   PD        0.758434    0.667691    0.302809     0.005394
PD1318   PD        0.125586    0.717019    0.273314     0.005394
PD1319   PD        0.184748    0.701884    0.340916     0.005394
PD1320   PD        0.173373    0.728414    0.297804     0.005394
PD1321   PD        0.215122    0.703605    0.306608     0.005394
PD1322   PD        0.221170    0.739276    0.338993     0.005394
PD1323   PD        0.257474    0.702811    0.338587     0.005394
PD1324   PD        0.253872    0.734357    0.303579     0.005394
PD1325   PD        0.290653    0.702781    0.290815     0.005394
PD1326   PD        0.290335    0.735545    0.341189     0.005394
PD1327   PD        0.324781    0.701058    0.339023     0.005394
PD1328   PD        0.330158    0.736863    0.301473     0.005394
PD1329   PD        0.362466    0.703679    0.298792     0.005394
PD1330   PD        0.365510    0.733496    0.335097     0.005394
PD1331   PD        0.400174    0.702313    0.337248     0.005394
PD1332   PD        0.402904    0.732024    0.299975     0.005394
PD1333   PD        0.437593    0.703431    0.300688     0.005394
PD1334   PD        0.437750    0.734966    0.337007     0.005394
AU1335   AU        0.473083    0.702335    0.335290     0.007504
PD1336   PD        0.473046    0.735152    0.302435     0.005394
AU1337   AU        0.509029    0.703346    0.301553     0.007504
AU1338   AU        0.508299    0.734661    0.336778     0.007504
AU1339   AU        0.544664    0.703097    0.335940     0.007504
AU1340   AU        0.542724    0.736239    0.302897     0.007504
AU1341   AU        0.578899    0.702059    0.303755     0.007504
PD1342   PD        0.576224    0.735110    0.336716     0.005394
AU1343   AU        0.614509    0.702470    0.336735     0.007504
PD1344   PD        0.615018    0.734894    0.302551     0.005394
PD1345   PD        0.649757    0.702956    0.303528     0.005394
AU1346   AU        0.650372    0.734780    0.336726     0.007504
PD1347   PD        0.689006    0.699181    0.333327     0.005394
PD1348   PD        0.688389    0.730114    0.301910     0.005394
PD1349   PD        0.720943    0.699159    0.300491     0.005394
PD1350   PD        0.256516    0.768756    0.336030     0.005394
PD1351   PD        0.290154    0.767079    0.304948     0.005394
PD1352   PD        0.291778    0.799259    0.334526     0.005394
PD1353   PD        0.328610    0.765540    0.339456     0.005394
PD1354   PD        0.330674    0.803010    0.308291     0.005394
PD1355   PD        0.366275    0.764878    0.303841     0.005394
PD1356   PD        0.364860    0.832753    0.372464     0.005394
PD1357   PD        0.400297    0.767861    0.332666     0.005394
PD1358   PD        0.399881    0.766405    0.269115     0.005394
PD1359   PD        0.437009    0.766125    0.300196     0.005394
AU1360   AU        0.439147    0.800240    0.333598     0.007504
AU1361   AU        0.474313    0.768241    0.333429     0.007504
PD1362   PD        0.474988    0.799244    0.300975     0.005394
AU1363   AU        0.509309    0.767284    0.301899     0.007504
PD1364   PD        0.504959    0.800666    0.336812     0.005394
AU1365   AU        0.543406    0.769146    0.336023     0.007504
PD1366   PD        0.507414    0.797465    0.268096     0.005394
PD1367   PD        0.580192    0.767689    0.302990     0.005394
PD1368   PD        0.579968    0.798142    0.336329     0.005394
PD1369   PD        0.614963    0.766049    0.336125     0.005394
PD1370   PD        0.230173    0.030965    0.304737     0.005394
PD1371   PD        0.289653    0.074633    0.403779     0.005394
PD1372   PD        0.327346    0.072911    0.370424     0.005394
PD1373   PD        0.358763    0.067846    0.404923     0.005394
PD1374   PD        0.400930    0.037762    0.402924     0.005394
PD1375   PD        0.396265    0.072709    0.369168     0.005394
PD1376   PD        0.402150    0.000667    0.374732     0.005394
PD1377   PD        0.435050    0.070976    0.403482     0.005394
PD1378   PD        0.472510    0.037757    0.405756     0.005394
AU1379   AU        0.469643    0.069864    0.370225     0.007504
PD1380   PD        0.505504    0.070205    0.403848     0.005394
PD1381   PD        0.543761    0.070613    0.368008     0.005394
PD1382   PD        0.578969    0.070666    0.399645     0.005394
PD1383   PD        0.614847    0.067895    0.365183     0.005394
PD1384   PD        0.149071    0.136066    0.402911     0.005394
PD1385   PD        0.152971    0.096291    0.437422     0.005394
PD1386   PD        0.184296    0.134090    0.370859     0.005394
PD1387   PD        0.219123    0.102619    0.371203     0.005394
AU1388   AU        0.220947    0.137922    0.401745     0.007504
PD1389   PD        0.255661    0.107179    0.402392     0.005394
PD1390   PD        0.253219    0.136934    0.365681     0.005394
PD1391   PD        0.291533    0.104983    0.366728     0.005394
PD1392   PD        0.291441    0.137638    0.400304     0.005394
PD1393   PD        0.326080    0.105604    0.401697     0.005394
PD1394   PD        0.326640    0.136929    0.365372     0.005394
PD1395   PD        0.359645    0.104358    0.369029     0.005394
PD1396   PD        0.363326    0.138068    0.401577     0.005394
PD1397   PD        0.398029    0.104551    0.401560     0.005394
PD1398   PD        0.396346    0.137179    0.367225     0.005394
AU1399   AU        0.433634    0.102411    0.368267     0.007504
AU1400   AU        0.435340    0.136142    0.401252     0.007504
AU1401   AU        0.470622    0.103634    0.402024     0.007504
AU1402   AU        0.472051    0.137231    0.370148     0.007504
AU1403   AU        0.506302    0.101016    0.367607     0.007504
AU1404   AU        0.509556    0.136056    0.400895     0.007504
AU1405   AU        0.543946    0.101551    0.400180     0.007504
PD1406   PD        0.542971    0.134126    0.367748     0.005394
AU1407   AU        0.579991    0.102003    0.367776     0.007504
AU1408   AU        0.577487    0.134021    0.400709     0.007504
PD1409   PD        0.614157    0.103332    0.403705     0.005394
PD1410   PD        0.611586    0.136007    0.365594     0.005394
PD1411   PD        0.644840    0.102056    0.370224     0.005394
PD1412   PD        0.651704    0.138784    0.405176     0.005394
PD1413   PD        0.683596    0.101664    0.400875     0.005394
PD1414   PD        0.721468    0.136388    0.335046     0.005394
PD1415   PD        0.719829    0.137349    0.403722     0.005394
PD1416   PD        0.074606    0.202252    0.402640     0.005394
PD1417   PD        0.111432    0.170277    0.405380     0.005394
PD1418   PD        0.111845    0.203258    0.369785     0.005394
PD1419   PD        0.149902    0.171349    0.368877     0.005394
PD1420   PD        0.149929    0.202540    0.402662     0.005394
PD1421   PD        0.184925    0.170953    0.400687     0.005394
AU1422   AU        0.183356    0.203602    0.368378     0.007504
PD1423   PD        0.218478    0.170165    0.368616     0.005394
AU1424   AU        0.219501    0.202837    0.401946     0.007504
AU1425   AU        0.255085    0.170478    0.402154     0.007504
AU1426   AU        0.255472    0.201659    0.368622     0.007504
PD1427   PD        0.289573    0.169619    0.367390     0.005394
AU1428   AU        0.289330    0.201882    0.402346     0.007504
PD1429   PD        0.326311    0.169285    0.402982     0.005394
PD1430   PD        0.325059    0.201391    0.368326     0.005394
PD1431   PD        0.361301    0.167617    0.364965     0.005394
AU1432   AU        0.360481    0.203674    0.401309     0.007504
PD1433   PD        0.399509    0.168153    0.402050     0.005394
AU1434   AU        0.399906    0.200597    0.368903     0.007504
AU1435   AU        0.434887    0.169427    0.369281     0.007504
AU1436   AU        0.436929    0.201679    0.403397     0.007504
AU1437   AU        0.471404    0.169148    0.400934     0.007504
AU1438   AU        0.471871    0.199718    0.367032     0.007504
AU1439   AU        0.508722    0.167764    0.369403     0.007504
AU1440   AU        0.509997    0.202566    0.401612     0.007504
AU1441   AU        0.542303    0.167200    0.401718     0.007504
AU1442   AU        0.542537    0.201067    0.367612     0.007504
AU1443   AU        0.576689    0.168284    0.366993     0.007504
AU1444   AU        0.577314    0.201798    0.402097     0.007504
PD1445   PD        0.613731    0.167737    0.398252     0.005394
PD1446   PD        0.614288    0.200135    0.369181     0.005394
PD1447   PD        0.649990    0.168511    0.368829     0.005394
PD1448   PD        0.648451    0.198449    0.401082     0.005394
PD1449   PD        0.684976    0.171168    0.403499     0.005394
PD1450   PD        0.684299    0.204116    0.365542     0.005394
PD1451   PD        0.721983    0.171298    0.366956     0.005394
PD1452   PD        0.721893    0.202457    0.404133     0.005394
PD1453   PD        0.756092    0.169388    0.400446     0.005394
PD1454   PD        0.757215    0.201130    0.366662     0.005394
PD1455   PD        0.789346    0.201109    0.398961     0.005394
PD1456   PD        0.045966    0.272247    0.369359     0.005394
PD1457   PD        0.075832    0.234460    0.371213     0.005394
AU1458   AU        0.078982    0.270024    0.403447     0.007504
PD1459   PD        0.111086    0.234462    0.401821     0.005394
PD1460   PD        0.114109    0.269461    0.371685     0.005394
AU1461   AU        0.148086    0.235326    0.369516     0.007504
AU1462   AU        0.146174    0.267300    0.403085     0.007504
AU1463   AU        0.183633    0.234272    0.401575     0.007504
PD1464   PD        0.182608    0.267884    0.367814     0.005394
AU1465   AU        0.219125    0.235417    0.368615     0.007504
AU1466   AU        0.219294    0.265879    0.403482     0.007504
AU1467   AU        0.254841    0.234806    0.402132     0.007504
AU1468   AU        0.255631    0.269432    0.369555     0.007504
AU1469   AU        0.290563    0.235561    0.368178     0.007504
AU1470   AU        0.291907    0.266940    0.401618     0.007504
AU1471   AU        0.324776    0.235589    0.404629     0.007504
AU1472   AU        0.327101    0.266767    0.367176     0.007504
AU1473   AU        0.360562    0.235409    0.368505     0.007504
AU1474   AU        0.363400    0.267191    0.401175     0.007504
AU1475   AU        0.398701    0.235465    0.401709     0.007504
AU1476   AU        0.396617    0.268281    0.366700     0.007504
AU1477   AU        0.436443    0.233002    0.367783     0.007504
AU1478   AU        0.434141    0.268675    0.403351     0.007504
AU1479   AU        0.472285    0.235518    0.401453     0.007504
AU1480   AU        0.470800    0.268307    0.368234     0.007504
AU1481   AU        0.508613    0.233690    0.367980     0.007504
AU1482   AU        0.507248    0.268479    0.401583     0.007504
AU1483   AU        0.542996    0.235209    0.403394     0.007504
AU1484   AU        0.542462    0.269709    0.368634     0.007504
AU1485   AU        0.576979    0.235648    0.368271     0.007504
AU1486   AU        0.579498    0.268757    0.403039     0.007504
AU1487   AU        0.614799    0.236168    0.403361     0.007504
AU1488   AU        0.615183    0.268769    0.368795     0.007504
PD1489   PD        0.650236    0.235929    0.369224     0.005394
AU1490   AU        0.651563    0.266366    0.401176     0.007504
PD1491   PD        0.689581    0.237929    0.399269     0.005394
PD1492   PD        0.688484    0.266255    0.364846     0.005394
PD1493   PD        0.723004    0.234224    0.366367     0.005394
PD1494   PD        0.724918    0.267854    0.403219     0.005394
PD1495   PD        0.757415    0.235847    0.401730     0.005394
PD1496   PD        0.758000    0.267403    0.367885     0.005394
PD1497   PD        0.790994    0.235205    0.364403     0.005394
PD1498   PD        0.793461    0.264769    0.402955     0.005394
PD1499   PD        0.884893    0.244741    0.309405     0.005394
PD1500   PD        0.043093    0.303331    0.406098     0.005394
AU1501   AU        0.042885    0.333530    0.369899     0.007504
AU1502   AU        0.078911    0.303462    0.370820     0.007504
AU1503   AU        0.077879    0.334474    0.403773     0.007504
AU1504   AU        0.112824    0.301103    0.404949     0.007504
PD1505   PD        0.113535    0.335628    0.370619     0.005394
AU1506   AU        0.146578    0.300116    0.368659     0.007504
AU1507   AU        0.147054    0.334114    0.405168     0.007504
PD1508   PD        0.182341    0.298028    0.403546     0.005394
AU1509   AU        0.182627    0.334524    0.368582     0.007504
AU1510   AU        0.220891    0.300189    0.368314     0.007504
AU1511   AU        0.217374    0.334850    0.402390     0.007504
AU1512   AU        0.253726    0.300044    0.401745     0.007504
AU1513   AU        0.254345    0.334510    0.371782     0.007504
AU1514   AU        0.291327    0.300066    0.370505     0.007504
AU1515   AU        0.291793    0.333470    0.402668     0.007504
AU1516   AU        0.326882    0.301432    0.400159     0.007504
AU1517   AU        0.326485    0.335241    0.368984     0.007504
AU1518   AU        0.361449    0.300891    0.368533     0.007504
AU1519   AU        0.362431    0.334368    0.401444     0.007504
AU1520   AU        0.395592    0.301495    0.401055     0.007504
AU1521   AU        0.398694    0.334021    0.368264     0.007504
AU1522   AU        0.433171    0.300377    0.368805     0.007504
AU1523   AU        0.434748    0.333183    0.402212     0.007504
AU1524   AU        0.470187    0.302780    0.400370     0.007504
AU1525   AU        0.470377    0.336500    0.367455     0.007504
AU1526   AU        0.507208    0.301319    0.369441     0.007504
AU1527   AU        0.506227    0.334611    0.401387     0.007504
AU1528   AU        0.543782    0.302389    0.403444     0.007504
AU1529   AU        0.540998    0.333407    0.369064     0.007504
AU1530   AU        0.579514    0.302136    0.368116     0.007504
AU1531   AU        0.579163    0.334480    0.403830     0.007504
AU1532   AU        0.615722    0.300643    0.400217     0.007504
AU1533   AU        0.614900    0.334053    0.368692     0.007504
AU1534   AU        0.652822    0.303246    0.367263     0.007504
AU1535   AU        0.649556    0.334039    0.401066     0.007504
AU1536   AU        0.687391    0.298741    0.400168     0.007504
AU1537   AU        0.688052    0.334897    0.366838     0.007504
AU1538   AU        0.723371    0.300762    0.365560     0.007504
AU1539   AU        0.722273    0.336184    0.401373     0.007504
PD1540   PD        0.756563    0.301190    0.400878     0.005394
PD1541   PD        0.755554    0.336693    0.368536     0.005394
PD1542   PD        0.788529    0.303184    0.369060     0.005394
PD1543   PD        0.789867    0.335398    0.402627     0.005394
PD1544   PD        0.825675    0.299964    0.396211     0.005394
PD1545   PD        0.827032    0.332913    0.365801     0.005394
PD1546   PD        0.006158    0.400953    0.403843     0.005394
PD1547   PD        0.042284    0.369442    0.400717     0.005394
PD1548   PD        0.045171    0.402387    0.370459     0.005394
PD1549   PD        0.077529    0.367906    0.368943     0.005394
PD1550   PD        0.080201    0.402184    0.403171     0.005394
AU1551   AU        0.113824    0.367814    0.403042     0.007504
AU1552   AU        0.114552    0.402023    0.369064     0.007504
AU1553   AU        0.146976    0.367099    0.369241     0.007504
AU1554   AU        0.147934    0.402730    0.402318     0.007504
AU1555   AU        0.182226    0.367813    0.402758     0.007504
AU1556   AU        0.181067    0.401119    0.369020     0.007504
AU1557   AU        0.217883    0.369011    0.370944     0.007504
AU1558   AU        0.215733    0.401385    0.402439     0.007504
AU1559   AU        0.255283    0.369708    0.405054     0.007504
AU1560   AU        0.254579    0.400317    0.368876     0.007504
AU1561   AU        0.291204    0.366407    0.370191     0.007504
AU1562   AU        0.290916    0.400572    0.400320     0.007504
AU1563   AU        0.328030    0.367558    0.402478     0.007504
AU1564   AU        0.325314    0.402419    0.366555     0.007504
AU1565   AU        0.361079    0.368487    0.366895     0.007504
AU1566   AU        0.363643    0.401120    0.401935     0.007504
AU1567   AU        0.398767    0.368428    0.400281     0.007504
AU1568   AU        0.399783    0.402049    0.367460     0.007504
AU1569   AU        0.435703    0.368696    0.367442     0.007504
AU1570   AU        0.434798    0.400239    0.402357     0.007504
AU1571   AU        0.472225    0.366857    0.401885     0.007504
AU1572   AU        0.472611    0.400921    0.368626     0.007504
AU1573   AU        0.506573    0.368700    0.366973     0.007504
AU1574   AU        0.509319    0.400269    0.402975     0.007504
AU1575   AU        0.543060    0.365933    0.402258     0.007504
AU1576   AU        0.541611    0.402825    0.367433     0.007504
AU1577   AU        0.578413    0.370119    0.368577     0.007504
AU1578   AU        0.577185    0.401692    0.401960     0.007504
AU1579   AU        0.614994    0.370935    0.403538     0.007504
AU1580   AU        0.616506    0.401897    0.367471     0.007504
AU1581   AU        0.648283    0.366461    0.368753     0.007504
AU1582   AU        0.649377    0.402597    0.401750     0.007504
AU1583   AU        0.684202    0.368017    0.402335     0.007504
AU1584   AU        0.684704    0.402429    0.369581     0.007504
AU1585   AU        0.720930    0.371427    0.368726     0.007504
AU1586   AU        0.720138    0.404221    0.401997     0.007504
AU1587   AU        0.755668    0.369266    0.401436     0.007504
PD1588   PD        0.755859    0.402514    0.367152     0.005394
PD1589   PD        0.794310    0.368277    0.368171     0.005394
PD1590   PD        0.790949    0.400240    0.402189     0.005394
PD1591   PD        0.867196    0.376669    0.363851     0.005394
PD1592   PD        0.827713    0.402935    0.369941     0.005394
PD1593   PD        0.861534    0.404187    0.403119     0.005394
PD1594   PD        0.007498    0.400029    0.336952     0.005394
PD1595   PD        0.010310    0.469676    0.404088     0.005394
PD1596   PD        0.042610    0.434758    0.403786     0.005394
PD1597   PD        0.041965    0.467387    0.370951     0.005394
PD1598   PD        0.078201    0.434683    0.368781     0.005394
PD1599   PD        0.078149    0.467568    0.402080     0.005394
AU1600   AU        0.113167    0.432811    0.403086     0.007504
AU1601   AU        0.112572    0.469363    0.368711     0.007504
AU1602   AU        0.148502    0.435770    0.368301     0.007504
AU1603   AU        0.146089    0.468192    0.400530     0.007504
AU1604   AU        0.182391    0.436358    0.402684     0.007504
AU1605   AU        0.183995    0.467714    0.367751     0.007504
AU1606   AU        0.220392    0.435614    0.368785     0.007504
AU1607   AU        0.216547    0.467773    0.403263     0.007504
AU1608   AU        0.253978    0.436226    0.401721     0.007504
AU1609   AU        0.252593    0.470664    0.370006     0.007504
AU1610   AU        0.289114    0.435686    0.368167     0.007504
AU1611   AU        0.291892    0.465792    0.403065     0.007504
AU1612   AU        0.326861    0.433800    0.401406     0.007504
AU1613   AU        0.328158    0.470028    0.370764     0.007504
AU1614   AU        0.362214    0.432325    0.368577     0.007504
AU1615   AU        0.364320    0.469404    0.401365     0.007504
AU1616   AU        0.398417    0.435561    0.400585     0.007504
AU1617   AU        0.397601    0.468595    0.366683     0.007504
AU1618   AU        0.433356    0.435824    0.369099     0.007504
AU1619   AU        0.435125    0.469075    0.399265     0.007504
AU1620   AU        0.469846    0.434267    0.402935     0.007504
AU1621   AU        0.470909    0.469686    0.367323     0.007504
AU1622   AU        0.507826    0.435947    0.369802     0.007504
AU1623   AU        0.505903    0.469437    0.403568     0.007504
AU1624   AU        0.544566    0.436054    0.400361     0.007504
AU1625   AU        0.543563    0.468774    0.369612     0.007504
AU1626   AU        0.581070    0.435461    0.365984     0.007504
AU1627   AU        0.578554    0.470584    0.402178     0.007504
AU1628   AU        0.613611    0.435372    0.402932     0.007504
AU1629   AU        0.614003    0.470918    0.367778     0.007504
AU1630   AU        0.649816    0.436056    0.368974     0.007504
AU1631   AU        0.650482    0.469607    0.401366     0.007504
AU1632   AU        0.686317    0.434642    0.402569     0.007504
AU1633   AU        0.687484    0.467621    0.366800     0.007504
AU1634   AU        0.721359    0.433988    0.368848     0.007504
AU1635   AU        0.721769    0.468694    0.401053     0.007504
AU1636   AU        0.758407    0.435063    0.402300     0.007504
PD1637   PD        0.757397    0.466981    0.366555     0.005394
PD1638   PD        0.792767    0.434537    0.368076     0.005394
PD1639   PD        0.790687    0.469270    0.403627     0.005394
PD1640   PD        0.825175    0.436355    0.403333     0.005394
PD1641   PD        0.827117    0.465587    0.371979     0.005394
PD1642   PD        0.862867    0.434947    0.369921     0.005394
PD1643   PD        0.862689    0.468385    0.403625     0.005394
AU1644   AU        0.043831    0.500946    0.401845     0.007504
PD1645   PD        0.044755    0.534355    0.368789     0.005394
AU1646   AU        0.079707    0.500115    0.369733     0.007504
AU1647   AU        0.077018    0.534536    0.400295     0.007504
AU1648   AU        0.113186    0.503019    0.401113     0.007504
PD1649   PD        0.113701    0.534381    0.368940     0.005394
AU1650   AU        0.148382    0.500524    0.368490     0.007504
AU1651   AU        0.149855    0.533859    0.401957     0.007504
AU1652   AU        0.184693    0.502304    0.400988     0.007504
AU1653   AU        0.184347    0.534549    0.369387     0.007504
AU1654   AU        0.217619    0.500677    0.370666     0.007504
AU1655   AU        0.220068    0.534653    0.401689     0.007504
AU1656   AU        0.255676    0.503462    0.402230     0.007504
AU1657   AU        0.254870    0.535990    0.368206     0.007504
AU1658   AU        0.290455    0.501349    0.368630     0.007504
AU1659   AU        0.291280    0.535221    0.402557     0.007504
AU1660   AU        0.325507    0.502921    0.401066     0.007504
AU1661   AU        0.327034    0.535760    0.368072     0.007504
AU1662   AU        0.361807    0.502795    0.368317     0.007504
AU1663   AU        0.361925    0.535549    0.401495     0.007504
AU1664   AU        0.399024    0.503242    0.403476     0.007504
AU1665   AU        0.399168    0.536128    0.369863     0.007504
AU1666   AU        0.433924    0.501931    0.367220     0.007504
AU1667   AU        0.434948    0.535255    0.402268     0.007504
AU1668   AU        0.470494    0.501117    0.400787     0.007504
AU1669   AU        0.469422    0.534899    0.368927     0.007504
AU1670   AU        0.508694    0.501595    0.369810     0.007504
AU1671   AU        0.507612    0.537734    0.402911     0.007504
AU1672   AU        0.543961    0.504491    0.402420     0.007504
AU1673   AU        0.544091    0.535668    0.367217     0.007504
AU1674   AU        0.577528    0.503008    0.368107     0.007504
AU1675   AU        0.580846    0.536294    0.403267     0.007504
AU1676   AU        0.613794    0.501691    0.400890     0.007504
AU1677   AU        0.615923    0.535719    0.366931     0.007504
AU1678   AU        0.652140    0.501541    0.369384     0.007504
PD1679   PD        0.648280    0.533209    0.399837     0.005394
AU1680   AU        0.686472    0.501313    0.400472     0.007504
PD1681   PD        0.684422    0.535375    0.365516     0.005394
AU1682   AU        0.722962    0.502292    0.367928     0.007504
PD1683   PD        0.723132    0.534954    0.404932     0.005394
AU1684   AU        0.757344    0.501855    0.403720     0.007504
PD1685   PD        0.759234    0.534362    0.367439     0.005394
PD1686   PD        0.790415    0.500639    0.368513     0.005394
PD1687   PD        0.791017    0.533202    0.401615     0.005394
PD1688   PD        0.825980    0.503394    0.404319     0.005394
PD1689   PD        0.825000    0.535287    0.368384     0.005394
PD1690   PD        0.045747    0.569791    0.401387     0.005394
PD1691   PD        0.010048    0.604752    0.402878     0.005394
PD1692   PD        0.081167    0.566322    0.368841     0.005394
PD1693   PD        0.080488    0.601754    0.404857     0.005394
PD1694   PD        0.114388    0.568830    0.401889     0.005394
PD1695   PD        0.113987    0.604092    0.372180     0.005394
PD1696   PD        0.149365    0.568592    0.370223     0.005394
AU1697   AU        0.149893    0.603106    0.404113     0.007504
AU1698   AU        0.186183    0.569502    0.401992     0.007504
PD1699   PD        0.183211    0.600187    0.371944     0.005394
AU1700   AU        0.220436    0.567318    0.368631     0.007504
AU1701   AU        0.220615    0.603535    0.403923     0.007504
AU1702   AU        0.255498    0.569693    0.403437     0.007504
AU1703   AU        0.256347    0.601619    0.369734     0.007504
AU1704   AU        0.291501    0.567646    0.368887     0.007504
AU1705   AU        0.290011    0.602350    0.404707     0.007504
AU1706   AU        0.326186    0.569234    0.403552     0.007504
AU1707   AU        0.325887    0.601559    0.368836     0.007504
AU1708   AU        0.363033    0.567787    0.369777     0.007504
AU1709   AU        0.363331    0.600896    0.402622     0.007504
AU1710   AU        0.398675    0.567977    0.401817     0.007504
AU1711   AU        0.399534    0.603211    0.370392     0.007504
AU1712   AU        0.436856    0.571485    0.370306     0.007504
AU1713   AU        0.435313    0.605136    0.401669     0.007504
AU1714   AU        0.472741    0.569827    0.403006     0.007504
AU1715   AU        0.471971    0.604855    0.370201     0.007504
AU1716   AU        0.506685    0.570028    0.368576     0.007504
AU1717   AU        0.508556    0.604536    0.401826     0.007504
AU1718   AU        0.543313    0.570646    0.403680     0.007504
AU1719   AU        0.543278    0.604278    0.368756     0.007504
AU1720   AU        0.576921    0.569901    0.369422     0.007504
AU1721   AU        0.577833    0.602968    0.403334     0.007504
AU1722   AU        0.612376    0.569878    0.402634     0.007504
AU1723   AU        0.612184    0.602237    0.369375     0.007504
AU1724   AU        0.649954    0.571477    0.367743     0.007504
AU1725   AU        0.650016    0.601719    0.402639     0.007504
PD1726   PD        0.685220    0.571470    0.403606     0.005394
PD1727   PD        0.685969    0.603466    0.369121     0.005394
AU1728   AU        0.722411    0.570065    0.370818     0.007504
AU1729   AU        0.721729    0.602784    0.400860     0.007504
PD1730   PD        0.757119    0.566392    0.404013     0.005394
PD1731   PD        0.756517    0.602490    0.365420     0.005394
AU1732   AU        0.791998    0.569264    0.367828     0.007504
PD1733   PD        0.787587    0.602380    0.402872     0.005394
PD1734   PD        0.823151    0.569256    0.402947     0.005394
PD1735   PD        0.825913    0.601095    0.368901     0.005394
PD1736   PD        0.075417    0.633289    0.368863     0.005394
PD1737   PD        0.080440    0.666156    0.407464     0.005394
PD1738   PD        0.117104    0.637044    0.403200     0.005394
PD1739   PD        0.111183    0.669016    0.372811     0.005394
PD1740   PD        0.148808    0.636164    0.370033     0.005394
PD1741   PD        0.150136    0.669619    0.406011     0.005394
PD1742   PD        0.184314    0.636002    0.405102     0.005394
AU1743   AU        0.183119    0.670385    0.372979     0.007504
PD1744   PD        0.217478    0.636837    0.373800     0.005394
AU1745   AU        0.219360    0.671850    0.404450     0.007504
AU1746   AU        0.254769    0.637171    0.405183     0.007504
PD1747   PD        0.252314    0.671143    0.371993     0.005394
AU1748   AU        0.290760    0.633022    0.372307     0.007504
AU1749   AU        0.288680    0.669882    0.403080     0.007504
AU1750   AU        0.326932    0.636003    0.403297     0.007504
PD1751   PD        0.325698    0.670730    0.372412     0.005394
AU1752   AU        0.365521    0.637533    0.369414     0.007504
AU1753   AU        0.363205    0.669603    0.402018     0.007504
AU1754   AU        0.398799    0.635988    0.400101     0.007504
AU1755   AU        0.399492    0.669573    0.369362     0.007504
AU1756   AU        0.436705    0.637216    0.370032     0.007504
AU1757   AU        0.434333    0.669568    0.402024     0.007504
AU1758   AU        0.474187    0.636791    0.401648     0.007504
AU1759   AU        0.471580    0.670772    0.367867     0.007504
AU1760   AU        0.509337    0.635463    0.368400     0.007504
AU1761   AU        0.509544    0.670159    0.402159     0.007504
AU1762   AU        0.544251    0.635378    0.401879     0.007504
AU1763   AU        0.544494    0.668784    0.367527     0.007504
AU1764   AU        0.579866    0.636057    0.371042     0.007504
AU1765   AU        0.577165    0.669436    0.401000     0.007504
AU1766   AU        0.616253    0.636111    0.402348     0.007504
AU1767   AU        0.612263    0.670299    0.370055     0.007504
AU1768   AU        0.650633    0.635576    0.369263     0.007504
AU1769   AU        0.650676    0.668179    0.403303     0.007504
AU1770   AU        0.685747    0.635191    0.402829     0.007504
AU1771   AU        0.685903    0.668985    0.369191     0.007504
PD1772   PD        0.716587    0.634016    0.368254     0.005394
PD1773   PD        0.720981    0.668143    0.404508     0.005394
PD1774   PD        0.755313    0.636031    0.404513     0.005394
PD1775   PD        0.758853    0.671177    0.368525     0.005394
PD1776   PD        0.788665    0.634591    0.368493     0.005394
PD1777   PD        0.831697    0.672329    0.365540     0.005394
PD1778   PD        0.117160    0.701644    0.406900     0.005394
PD1779   PD        0.150569    0.703196    0.371199     0.005394
PD1780   PD        0.149523    0.735916    0.404888     0.005394
AU1781   AU        0.183932    0.701518    0.405281     0.007504
PD1782   PD        0.186494    0.734256    0.372345     0.005394
AU1783   AU        0.219530    0.704759    0.372890     0.007504
AU1784   AU        0.218205    0.735490    0.405902     0.007504
AU1785   AU        0.255104    0.703011    0.403820     0.007504
PD1786   PD        0.255081    0.735942    0.372562     0.005394
AU1787   AU        0.290080    0.703795    0.373292     0.007504
AU1788   AU        0.290284    0.736315    0.404175     0.007504
AU1789   AU        0.327004    0.702383    0.403518     0.007504
PD1790   PD        0.327488    0.734006    0.371115     0.005394
PD1791   PD        0.362193    0.703286    0.372219     0.005394
AU1792   AU        0.363154    0.736159    0.402464     0.007504
PD1793   PD        0.397704    0.701160    0.401674     0.005394
PD1794   PD        0.401063    0.737800    0.369409     0.005394
AU1795   AU        0.436060    0.702585    0.367020     0.007504
PD1796   PD        0.434979    0.734025    0.401160     0.005394
AU1797   AU        0.473142    0.704283    0.399906     0.007504
PD1798   PD        0.473522    0.737619    0.367706     0.005394
AU1799   AU        0.511085    0.702748    0.369113     0.007504
AU1800   AU        0.506195    0.734983    0.401549     0.007504
AU1801   AU        0.545224    0.704585    0.402316     0.007504
AU1802   AU        0.543583    0.735072    0.369018     0.007504
AU1803   AU        0.577555    0.703369    0.369501     0.007504
AU1804   AU        0.581177    0.736295    0.403905     0.007504
AU1805   AU        0.614093    0.701061    0.401055     0.007504
PD1806   PD        0.615383    0.735383    0.370713     0.005394
PD1807   PD        0.649376    0.700226    0.370892     0.005394
PD1808   PD        0.648752    0.734748    0.403934     0.005394
PD1809   PD        0.682823    0.701323    0.404546     0.005394
PD1810   PD        0.682692    0.736494    0.372207     0.005394
PD1811   PD        0.719836    0.701505    0.370774     0.005394
PD1812   PD        0.719287    0.730986    0.403547     0.005394
PD1813   PD        0.755657    0.701175    0.406185     0.005394
PD1814   PD        0.185544    0.771144    0.405286     0.005394
PD1815   PD        0.221156    0.768469    0.374331     0.005394
PD1816   PD        0.254770    0.765891    0.405863     0.005394
PD1817   PD        0.256005    0.800350    0.370600     0.005394
PD1818   PD        0.291518    0.771402    0.370380     0.005394
PD1819   PD        0.341652    0.881319    0.445673     0.005394
PD1820   PD        0.327214    0.766810    0.402567     0.005394
PD1821   PD        0.289625    0.870964    0.334903     0.005394
PD1822   PD        0.365212    0.769149    0.370046     0.005394
PD1823   PD        0.366276    0.799893    0.405060     0.005394
PD1824   PD        0.399038    0.769195    0.405055     0.005394
PD1825   PD        0.399885    0.800571    0.366543     0.005394
PD1826   PD        0.436809    0.766684    0.369696     0.005394
PD1827   PD        0.435140    0.800832    0.405203     0.005394
AU1828   AU        0.472422    0.766665    0.402894     0.007504
PD1829   PD        0.470604    0.800304    0.371063     0.005394
AU1830   AU        0.508178    0.768007    0.367653     0.007504
AU1831   AU        0.506099    0.799619    0.401269     0.007504
AU1832   AU        0.543134    0.766262    0.401037     0.007504
AU1833   AU        0.542977    0.799172    0.370874     0.007504
AU1834   AU        0.578472    0.768243    0.369993     0.007504
PD1835   PD        0.579961    0.800442    0.400944     0.005394
AU1836   AU        0.615396    0.768278    0.403167     0.007504
PD1837   PD        0.614187    0.798889    0.370429     0.005394
PD1838   PD        0.653314    0.765037    0.371333     0.005394
PD1839   PD        0.685872    0.766650    0.405169     0.005394
PD1840   PD        0.401404    0.831491    0.403053     0.005394
PD1841   PD        0.402152    0.864813    0.364992     0.005394
PD1842   PD        0.472489    0.834748    0.404153     0.005394
PD1843   PD        0.255553    0.074184    0.434124     0.005394
PD1844   PD        0.292494    0.072960    0.465813     0.005394
PD1845   PD        0.325032    0.077814    0.434746     0.005394
PD1846   PD        0.366827    0.035176    0.433842     0.005394
PD1847   PD        0.367131    0.072420    0.465025     0.005394
PD1848   PD        0.399053    0.040264    0.468809     0.005394
PD1849   PD        0.401804    0.073935    0.437315     0.005394
PD1850   PD        0.436289    0.041914    0.437123     0.005394
AU1851   AU        0.435554    0.073612    0.469564     0.007504
PD1852   PD        0.470860    0.043993    0.470406     0.005394
PD1853   PD        0.472605    0.072693    0.436522     0.005394
PD1854   PD        0.575487    0.037850    0.368943     0.005394
AU1855   AU        0.508336    0.074080    0.464820     0.007504
PD1856   PD        0.544643    0.071126    0.433655     0.005394
PD1857   PD        0.575539    0.070285    0.471745     0.005394
PD1858   PD        0.611947    0.068805    0.435488     0.005394
PD1859   PD        0.152473    0.133967    0.465590     0.005394
PD1860   PD        0.174241    0.053196    0.487471     0.005394
PD1861   PD        0.187959    0.135715    0.435110     0.005394
PD1862   PD        0.222493    0.101376    0.434392     0.005394
PD1863   PD        0.218317    0.137846    0.469370     0.005394
PD1864   PD        0.257719    0.106417    0.470632     0.005394
PD1865   PD        0.254298    0.138932    0.435899     0.005394
PD1866   PD        0.290348    0.108879    0.435146     0.005394
PD1867   PD        0.292350    0.139921    0.469483     0.005394
PD1868   PD        0.327656    0.104939    0.469403     0.005394
PD1869   PD        0.325663    0.137508    0.434674     0.005394
PD1870   PD        0.362158    0.106062    0.433153     0.005394
AU1871   AU        0.361238    0.137175    0.469751     0.007504
PD1872   PD        0.399183    0.104971    0.471242     0.005394
PD1873   PD        0.402979    0.135123    0.436196     0.005394
PD1874   PD        0.436618    0.104004    0.434466     0.005394
PD1875   PD        0.436689    0.135436    0.467412     0.005394
AU1876   AU        0.472726    0.104703    0.467027     0.007504
AU1877   AU        0.471845    0.135299    0.432676     0.007504
PD1878   PD        0.508851    0.106162    0.434042     0.005394
AU1879   AU        0.506247    0.136459    0.468651     0.007504
PD1880   PD        0.546239    0.105219    0.468940     0.005394
PD1881   PD        0.543453    0.135713    0.434775     0.005394
AU1882   AU        0.576049    0.103676    0.435434     0.007504
PD1883   PD        0.577256    0.132422    0.468971     0.005394
PD1884   PD        0.613157    0.101371    0.468379     0.005394
PD1885   PD        0.609991    0.133894    0.434982     0.005394
PD1886   PD        0.648109    0.105910    0.437090     0.005394
PD1887   PD        0.647177    0.139073    0.469035     0.005394
PD1888   PD        0.722823    0.100732    0.432518     0.005394
PD1889   PD        0.686487    0.135352    0.436143     0.005394
PD1890   PD        0.721663    0.136346    0.470103     0.005394
PD1891   PD        0.077148    0.202546    0.471321     0.005394
PD1892   PD        0.116395    0.167355    0.472036     0.005394
PD1893   PD        0.114231    0.202204    0.435777     0.005394
PD1894   PD        0.149551    0.166867    0.434736     0.005394
PD1895   PD        0.147012    0.199981    0.471309     0.005394
PD1896   PD        0.183403    0.169327    0.469195     0.005394
AU1897   AU        0.181923    0.201958    0.436448     0.007504
AU1898   AU        0.220514    0.170882    0.436579     0.007504
AU1899   AU        0.219059    0.201665    0.470769     0.007504
AU1900   AU        0.254593    0.169713    0.469794     0.007504
AU1901   AU        0.254035    0.202518    0.435725     0.007504
AU1902   AU        0.290886    0.171056    0.434453     0.007504
AU1903   AU        0.289485    0.201697    0.469562     0.007504
AU1904   AU        0.327186    0.169880    0.468857     0.007504
AU1905   AU        0.327558    0.201868    0.434927     0.007504
PD1906   PD        0.363879    0.168407    0.437872     0.005394
AU1907   AU        0.361547    0.203818    0.468770     0.007504
AU1908   AU        0.399282    0.169838    0.467097     0.007504
AU1909   AU        0.399168    0.203296    0.435655     0.007504
PD1910   PD        0.437492    0.168444    0.434859     0.005394
AU1911   AU        0.436260    0.201969    0.468803     0.007504
AU1912   AU        0.471431    0.169948    0.465952     0.007504
AU1913   AU        0.473619    0.202085    0.434197     0.007504
AU1914   AU        0.508261    0.169678    0.433970     0.007504
AU1915   AU        0.507877    0.201892    0.467787     0.007504
AU1916   AU        0.543820    0.167763    0.468065     0.007504
AU1917   AU        0.544108    0.203439    0.434489     0.007504
PD1918   PD        0.578457    0.169352    0.433152     0.005394
AU1919   AU        0.580722    0.201427    0.468367     0.007504
PD1920   PD        0.613244    0.170342    0.470383     0.005394
PD1921   PD        0.612388    0.201010    0.435073     0.005394
PD1922   PD        0.652412    0.172453    0.437539     0.005394
PD1923   PD        0.649683    0.203399    0.469514     0.005394
AU1924   AU        0.685872    0.169160    0.468760     0.007504
PD1925   PD        0.688832    0.201969    0.436157     0.005394
PD1926   PD        0.718906    0.170090    0.436898     0.005394
PD1927   PD        0.722740    0.201950    0.470135     0.005394
PD1928   PD        0.759096    0.172435    0.475805     0.005394
AU1929   AU        0.756084    0.200715    0.435316     0.007504
PD1930   PD        0.791922    0.207064    0.466823     0.005394
PD1931   PD        0.046657    0.267545    0.438468     0.005394
PD1932   PD        0.076610    0.234761    0.435886     0.005394
AU1933   AU        0.078420    0.269670    0.471190     0.007504
AU1934   AU        0.112768    0.234093    0.470771     0.007504
AU1935   AU        0.111323    0.265603    0.438439     0.007504
AU1936   AU        0.146278    0.236526    0.437272     0.007504
AU1937   AU        0.146451    0.267307    0.470188     0.007504
AU1938   AU        0.181413    0.235143    0.468498     0.007504
AU1939   AU        0.182488    0.267495    0.436237     0.007504
AU1940   AU        0.217830    0.234198    0.437092     0.007504
AU1941   AU        0.217909    0.267419    0.467589     0.007504
AU1942   AU        0.254779    0.233673    0.470010     0.007504
AU1943   AU        0.252692    0.266696    0.434539     0.007504
AU1944   AU        0.289790    0.234413    0.437082     0.007504
AU1945   AU        0.289734    0.267066    0.469614     0.007504
AU1946   AU        0.326239    0.233994    0.470768     0.007504
AU1947   AU        0.326621    0.267847    0.437702     0.007504
AU1948   AU        0.361269    0.235163    0.435241     0.007504
AU1949   AU        0.360557    0.267084    0.470150     0.007504
AU1950   AU        0.398997    0.234707    0.469784     0.007504
AU1951   AU        0.395877    0.268497    0.435562     0.007504
AU1952   AU        0.436251    0.234606    0.435079     0.007504
AU1953   AU        0.435113    0.267610    0.470718     0.007504
AU1954   AU        0.472985    0.237319    0.469751     0.007504
AU1955   AU        0.472632    0.268218    0.435997     0.007504
AU1956   AU        0.508038    0.234341    0.435959     0.007504
AU1957   AU        0.508949    0.268791    0.468561     0.007504
AU1958   AU        0.542515    0.234593    0.468488     0.007504
AU1959   AU        0.541789    0.268868    0.435093     0.007504
AU1960   AU        0.577470    0.235384    0.434794     0.007504
PD1961   PD        0.579534    0.268913    0.468974     0.005394
PD1962   PD        0.618423    0.237715    0.470798     0.005394
AU1963   AU        0.617611    0.269101    0.434172     0.007504
PD1964   PD        0.652433    0.236990    0.435931     0.005394
AU1965   AU        0.652395    0.268725    0.471119     0.007504
AU1966   AU        0.687387    0.237683    0.469984     0.007504
PD1967   PD        0.685141    0.268793    0.434116     0.005394
AU1968   AU        0.723039    0.235825    0.436580     0.007504
PD1969   PD        0.721223    0.269340    0.468351     0.005394
PD1970   PD        0.755600    0.235807    0.468708     0.005394
PD1971   PD        0.758555    0.267462    0.433320     0.005394
PD1972   PD        0.793867    0.238613    0.435885     0.005394
AU1973   AU        0.791431    0.268858    0.467343     0.007504
PD1974   PD        0.828147    0.269567    0.433686     0.005394
PD1975   PD        0.039041    0.304169    0.467847     0.005394
PD1976   PD        0.043663    0.338044    0.434978     0.005394
PD1977   PD        0.079905    0.302156    0.437763     0.005394
AU1978   AU        0.077625    0.334216    0.468906     0.007504
AU1979   AU        0.113094    0.301040    0.469173     0.007504
AU1980   AU        0.112603    0.334536    0.435835     0.007504
AU1981   AU        0.148082    0.300500    0.438076     0.007504
PD1982   PD        0.148311    0.333882    0.467667     0.005394
AU1983   AU        0.182742    0.298946    0.469344     0.007504
AU1984   AU        0.182955    0.336238    0.435992     0.007504
AU1985   AU        0.217385    0.299813    0.434529     0.007504
PD1986   PD        0.219607    0.334683    0.470722     0.005394
AU1987   AU        0.251948    0.299589    0.466701     0.007504
AU1988   AU        0.253397    0.333028    0.434338     0.007504
AU1989   AU        0.289331    0.299826    0.435264     0.007504
AU1990   AU        0.291043    0.333476    0.470024     0.007504
AU1991   AU        0.326079    0.302031    0.469845     0.007504
AU1992   AU        0.325471    0.332239    0.436864     0.007504
AU1993   AU        0.361469    0.301695    0.435414     0.007504
AU1994   AU        0.362446    0.336100    0.468862     0.007504
AU1995   AU        0.397434    0.301503    0.469500     0.007504
AU1996   AU        0.397577    0.332398    0.435004     0.007504
AU1997   AU        0.434206    0.301770    0.436199     0.007504
AU1998   AU        0.436832    0.332872    0.469285     0.007504
AU1999   AU        0.469786    0.300816    0.469536     0.007504
AU2000   AU        0.471900    0.335006    0.432972     0.007504
AU2001   AU        0.505097    0.301507    0.435455     0.007504
AU2002   AU        0.507006    0.333874    0.468241     0.007504
AU2003   AU        0.542674    0.302544    0.470014     0.007504
AU2004   AU        0.541339    0.333913    0.435421     0.007504
AU2005   AU        0.579833    0.299761    0.434822     0.007504
AU2006   AU        0.580746    0.333948    0.468095     0.007504
AU2007   AU        0.615384    0.300345    0.468178     0.007504
AU2008   AU        0.616838    0.335240    0.434103     0.007504
AU2009   AU        0.649457    0.302310    0.435667     0.007504
AU2010   AU        0.650980    0.336005    0.470038     0.007504
AU2011   AU        0.685225    0.300463    0.467384     0.007504
AU2012   AU        0.686937    0.334060    0.434192     0.007504
PD2013   PD        0.722419    0.301917    0.434471     0.005394
AU2014   AU        0.721684    0.336173    0.468093     0.007504
PD2015   PD        0.759854    0.302325    0.471890     0.005394
PD2016   PD        0.756971    0.337802    0.435066     0.005394
PD2017   PD        0.790535    0.302045    0.433482     0.005394
PD2018   PD        0.790642    0.337382    0.470036     0.005394
PD2019   PD        0.825730    0.301297    0.467559     0.005394
PD2020   PD        0.824145    0.336361    0.436588     0.005394
PD2021   PD        0.009899    0.367788    0.437685     0.005394
PD2022   PD        0.010032    0.402476    0.466828     0.005394
PD2023   PD        0.046619    0.368579    0.469081     0.005394
AU2024   AU        0.044739    0.401251    0.435433     0.007504
AU2025   AU        0.078425    0.367244    0.435109     0.007504
PD2026   PD        0.078374    0.401088    0.467775     0.005394
AU2027   AU        0.111550    0.367940    0.468641     0.007504
AU2028   AU        0.112588    0.400937    0.435781     0.007504
AU2029   AU        0.147535    0.368965    0.437456     0.007504
AU2030   AU        0.145299    0.401671    0.469974     0.007504
AU2031   AU        0.183477    0.369612    0.469749     0.007504
AU2032   AU        0.182896    0.402516    0.435010     0.007504
AU2033   AU        0.218899    0.369050    0.434937     0.007504
AU2034   AU        0.219076    0.401572    0.469850     0.007504
AU2035   AU        0.255570    0.366194    0.469823     0.007504
AU2036   AU        0.253846    0.403726    0.437296     0.007504
AU2037   AU        0.290301    0.370028    0.435149     0.007504
AU2038   AU        0.288741    0.402356    0.470854     0.007504
AU2039   AU        0.326087    0.367535    0.471436     0.007504
AU2040   AU        0.326645    0.401153    0.437519     0.007504
AU2041   AU        0.362724    0.367456    0.435532     0.007504
AU2042   AU        0.364315    0.399805    0.468221     0.007504
AU2043   AU        0.400265    0.367166    0.469690     0.007504
AU2044   AU        0.399573    0.402872    0.435670     0.007504
AU2045   AU        0.434950    0.367881    0.434070     0.007504
AU2046   AU        0.435264    0.402401    0.468675     0.007504
AU2047   AU        0.470972    0.367488    0.466898     0.007504
AU2048   AU        0.473253    0.402335    0.435543     0.007504
AU2049   AU        0.508674    0.368737    0.435445     0.007504
AU2050   AU        0.506691    0.402298    0.469943     0.007504
AU2051   AU        0.542509    0.368068    0.468466     0.007504
AU2052   AU        0.543908    0.403063    0.435733     0.007504
AU2053   AU        0.576221    0.367613    0.434882     0.007504
AU2054   AU        0.578990    0.402206    0.469782     0.007504
AU2055   AU        0.615724    0.369174    0.469506     0.007504
AU2056   AU        0.614341    0.401432    0.436297     0.007504
AU2057   AU        0.651420    0.369330    0.436238     0.007504
AU2058   AU        0.650824    0.401153    0.469192     0.007504
AU2059   AU        0.686856    0.368402    0.467619     0.007504
AU2060   AU        0.687346    0.403088    0.434786     0.007504
AU2061   AU        0.718816    0.369238    0.434886     0.007504
AU2062   AU        0.719959    0.402032    0.469360     0.007504
AU2063   AU        0.755238    0.371640    0.468416     0.007504
AU2064   AU        0.754767    0.402950    0.435683     0.007504
PD2065   PD        0.790599    0.369854    0.436199     0.005394
AU2066   AU        0.790409    0.403086    0.468124     0.007504
PD2067   PD        0.824273    0.371035    0.468237     0.005394
PD2068   PD        0.824551    0.403779    0.438594     0.005394
PD2069   PD        0.865181    0.372785    0.441861     0.005394
PD2070   PD        0.860773    0.402547    0.467869     0.005394
PD2071   PD        0.005063    0.432721    0.430534     0.005394
PD2072   PD        0.009722    0.467624    0.470742     0.005394
PD2073   PD        0.045908    0.435513    0.471692     0.005394
PD2074   PD        0.045458    0.466824    0.437886     0.005394
AU2075   AU        0.078889    0.435175    0.436280     0.007504
PD2076   PD        0.078572    0.470696    0.470035     0.005394
AU2077   AU        0.112799    0.435629    0.470458     0.007504
AU2078   AU        0.113197    0.469541    0.434208     0.007504
AU2079   AU        0.146126    0.436469    0.436915     0.007504
PD2080   PD        0.149340    0.467254    0.469281     0.005394
AU2081   AU        0.183442    0.434092    0.472086     0.007504
AU2082   AU        0.181891    0.468024    0.436197     0.007504
AU2083   AU        0.217384    0.433489    0.435864     0.007504
AU2084   AU        0.221122    0.467341    0.469363     0.007504
AU2085   AU        0.255292    0.435623    0.468733     0.007504
AU2086   AU        0.256565    0.469483    0.434677     0.007504
AU2087   AU        0.290815    0.434428    0.436131     0.007504
AU2088   AU        0.289395    0.467258    0.470489     0.007504
AU2089   AU        0.326332    0.434436    0.471708     0.007504
AU2090   AU        0.326466    0.470056    0.433926     0.007504
AU2091   AU        0.361893    0.434415    0.434484     0.007504
AU2092   AU        0.362919    0.467850    0.467424     0.007504
AU2093   AU        0.400610    0.435197    0.469222     0.007504
AU2094   AU        0.397822    0.468953    0.437183     0.007504
AU2095   AU        0.433902    0.436786    0.436901     0.007504
AU2096   AU        0.435160    0.469893    0.468953     0.007504
AU2097   AU        0.470406    0.436601    0.469944     0.007504
AU2098   AU        0.470099    0.467701    0.435027     0.007504
AU2099   AU        0.509403    0.437885    0.436085     0.007504
AU2100   AU        0.507537    0.470456    0.471190     0.007504
AU2101   AU        0.542958    0.434233    0.469823     0.007504
AU2102   AU        0.543492    0.467818    0.434343     0.007504
AU2103   AU        0.580048    0.436792    0.434026     0.007504
AU2104   AU        0.579177    0.469076    0.470673     0.007504
AU2105   AU        0.613054    0.435132    0.468655     0.007504
AU2106   AU        0.617188    0.468304    0.437331     0.007504
AU2107   AU        0.651445    0.436145    0.435844     0.007504
AU2108   AU        0.652206    0.467946    0.469414     0.007504
AU2109   AU        0.686891    0.435845    0.469454     0.007504
AU2110   AU        0.688560    0.468599    0.434539     0.007504
AU2111   AU        0.721185    0.435017    0.435696     0.007504
AU2112   AU        0.721024    0.470162    0.467792     0.007504
AU2113   AU        0.757799    0.436188    0.469110     0.007504
AU2114   AU        0.756730    0.467481    0.435237     0.007504
PD2115   PD        0.790351    0.435690    0.437205     0.005394
AU2116   AU        0.789949    0.469999    0.469390     0.007504
PD2117   PD        0.825233    0.436075    0.468773     0.005394
PD2118   PD        0.824933    0.468740    0.435333     0.005394
PD2119   PD        0.862040    0.435589    0.436251     0.005394
PD2120   PD        0.858353    0.468422    0.470249     0.005394
PD2121   PD        0.009126    0.502494    0.434750     0.005394
PD2122   PD        0.043468    0.500930    0.467585     0.005394
PD2123   PD        0.042618    0.533973    0.435092     0.005394
AU2124   AU        0.078303    0.502759    0.435237     0.007504
PD2125   PD        0.078344    0.534708    0.468523     0.005394
PD2126   PD        0.112187    0.501252    0.468473     0.005394
PD2127   PD        0.110593    0.536589    0.434579     0.005394
AU2128   AU        0.149451    0.502181    0.434071     0.007504
PD2129   PD        0.147027    0.535201    0.466135     0.005394
PD2130   PD        0.183710    0.500547    0.468217     0.005394
AU2131   AU        0.184751    0.534217    0.435590     0.007504
AU2132   AU        0.219402    0.500643    0.435309     0.007504
AU2133   AU        0.222322    0.534364    0.468359     0.007504
AU2134   AU        0.256041    0.501260    0.467541     0.007504
AU2135   AU        0.256004    0.535185    0.435658     0.007504
AU2136   AU        0.290590    0.503836    0.435913     0.007504
AU2137   AU        0.290508    0.535957    0.468710     0.007504
AU2138   AU        0.326774    0.502548    0.469373     0.007504
AU2139   AU        0.327229    0.537503    0.438061     0.007504
AU2140   AU        0.362740    0.504912    0.437213     0.007504
AU2141   AU        0.361464    0.536234    0.471751     0.007504
AU2142   AU        0.399259    0.503112    0.468236     0.007504
AU2143   AU        0.398320    0.536879    0.434811     0.007504
AU2144   AU        0.434797    0.502233    0.436196     0.007504
AU2145   AU        0.434782    0.536906    0.469436     0.007504
AU2146   AU        0.472010    0.501276    0.470757     0.007504
AU2147   AU        0.470446    0.534258    0.436278     0.007504
AU2148   AU        0.507438    0.501286    0.436718     0.007504
AU2149   AU        0.505417    0.537252    0.469906     0.007504
AU2150   AU        0.543792    0.503421    0.467654     0.007504
AU2151   AU        0.544220    0.537523    0.437197     0.007504
AU2152   AU        0.580642    0.502771    0.435029     0.007504
AU2153   AU        0.578992    0.537859    0.470125     0.007504
AU2154   AU        0.616916    0.502932    0.469469     0.007504
AU2155   AU        0.615362    0.535540    0.435937     0.007504
AU2156   AU        0.648743    0.502071    0.436561     0.007504
AU2157   AU        0.651888    0.537437    0.469037     0.007504
AU2158   AU        0.684835    0.502433    0.468597     0.007504
AU2159   AU        0.687882    0.535511    0.435743     0.007504
AU2160   AU        0.721574    0.502532    0.436121     0.007504
AU2161   AU        0.723579    0.537424    0.468786     0.007504
AU2162   AU        0.757102    0.502233    0.469325     0.007504
AU2163   AU        0.757159    0.533877    0.435865     0.007504
AU2164   AU        0.790626    0.502516    0.435731     0.007504
AU2165   AU        0.790748    0.534453    0.469038     0.007504
PD2166   PD        0.826828    0.503141    0.464998     0.005394
PD2167   PD        0.823356    0.535259    0.435759     0.005394
PD2168   PD        0.864241    0.498441    0.436351     0.005394
PD2169   PD        0.044772    0.568161    0.464837     0.005394
PD2170   PD        0.042616    0.602141    0.434656     0.005394
PD2171   PD        0.075338    0.567708    0.431490     0.005394
PD2172   PD        0.080904    0.599846    0.470682     0.005394
PD2173   PD        0.115849    0.566859    0.471887     0.005394
PD2174   PD        0.115527    0.600359    0.437308     0.005394
PD2175   PD        0.148024    0.566891    0.433875     0.005394
AU2176   AU        0.150919    0.601366    0.469407     0.007504
PD2177   PD        0.187081    0.568234    0.470440     0.005394
AU2178   AU        0.183969    0.603236    0.434824     0.007504
AU2179   AU        0.219859    0.569559    0.436038     0.007504
AU2180   AU        0.222491    0.602914    0.469039     0.007504
AU2181   AU        0.254517    0.569857    0.468123     0.007504
AU2182   AU        0.256874    0.603692    0.436036     0.007504
AU2183   AU        0.290927    0.570366    0.438523     0.007504
AU2184   AU        0.291624    0.603505    0.471500     0.007504
AU2185   AU        0.327729    0.569978    0.469515     0.007504
AU2186   AU        0.327614    0.602114    0.436624     0.007504
AU2187   AU        0.363125    0.569945    0.436990     0.007504
AU2188   AU        0.362407    0.602034    0.471800     0.007504
AU2189   AU        0.398774    0.568458    0.468618     0.007504
AU2190   AU        0.397365    0.601356    0.435220     0.007504
AU2191   AU        0.434935    0.570898    0.433549     0.007504
AU2192   AU        0.433261    0.603866    0.469092     0.007504
AU2193   AU        0.469511    0.570476    0.466613     0.007504
AU2194   AU        0.472314    0.602933    0.433127     0.007504
AU2195   AU        0.508719    0.571145    0.436115     0.007504
AU2196   AU        0.508217    0.602715    0.469378     0.007504
AU2197   AU        0.543156    0.568802    0.472455     0.007504
AU2198   AU        0.544520    0.602742    0.436408     0.007504
AU2199   AU        0.581040    0.569745    0.437116     0.007504
AU2200   AU        0.580218    0.604497    0.469474     0.007504
AU2201   AU        0.614876    0.570620    0.470043     0.007504
AU2202   AU        0.613788    0.604583    0.436827     0.007504
AU2203   AU        0.649594    0.570250    0.436686     0.007504
AU2204   AU        0.650927    0.602550    0.468901     0.007504
AU2205   AU        0.688154    0.570036    0.470688     0.007504
AU2206   AU        0.686180    0.602883    0.435377     0.007504
AU2207   AU        0.720482    0.569302    0.435933     0.007504
AU2208   AU        0.722326    0.602268    0.469717     0.007504
AU2209   AU        0.757528    0.568468    0.469803     0.007504
AU2210   AU        0.756449    0.599683    0.435350     0.007504
PD2211   PD        0.791173    0.565160    0.436280     0.005394
PD2212   PD        0.790545    0.599407    0.466372     0.005394
PD2213   PD        0.859320    0.538898    0.471022     0.005394
PD2214   PD        0.825685    0.602568    0.435655     0.005394
PD2215   PD        0.078969    0.633500    0.436294     0.005394
PD2216   PD        0.044856    0.681646    0.448943     0.005394
PD2217   PD        0.114288    0.632993    0.471595     0.005394
PD2218   PD        0.114341    0.668980    0.439517     0.005394
PD2219   PD        0.149648    0.634420    0.439157     0.005394
AU2220   AU        0.151172    0.666157    0.470324     0.007504
AU2221   AU        0.186900    0.635913    0.470539     0.007504
PD2222   PD        0.183726    0.668740    0.438269     0.005394
AU2223   AU        0.217932    0.637190    0.437074     0.007504
AU2224   AU        0.221717    0.668317    0.471045     0.007504
AU2225   AU        0.254071    0.636296    0.467856     0.007504
AU2226   AU        0.254258    0.670995    0.438282     0.007504
AU2227   AU        0.291348    0.637391    0.437690     0.007504
AU2228   AU        0.289946    0.669676    0.469170     0.007504
AU2229   AU        0.327102    0.635033    0.469347     0.007504
AU2230   AU        0.325802    0.670600    0.435868     0.007504
AU2231   AU        0.364017    0.634183    0.433107     0.007504
AU2232   AU        0.361486    0.670765    0.467918     0.007504
AU2233   AU        0.398185    0.636744    0.470339     0.007504
AU2234   AU        0.400257    0.668655    0.433978     0.007504
AU2235   AU        0.435035    0.635901    0.436203     0.007504
PD2236   PD        0.434111    0.668217    0.470164     0.005394
AU2237   AU        0.473305    0.636179    0.470303     0.007504
AU2238   AU        0.472143    0.670793    0.434359     0.007504
AU2239   AU        0.510082    0.637595    0.435565     0.007504
AU2240   AU        0.509789    0.668014    0.468522     0.007504
AU2241   AU        0.545297    0.635621    0.469327     0.007504
AU2242   AU        0.543626    0.669232    0.434409     0.007504
AU2243   AU        0.580016    0.637081    0.434431     0.007504
AU2244   AU        0.580242    0.669037    0.471113     0.007504
AU2245   AU        0.616822    0.637321    0.470416     0.007504
AU2246   AU        0.614283    0.669256    0.437781     0.007504
AU2247   AU        0.651426    0.635239    0.435414     0.007504
AU2248   AU        0.649467    0.670296    0.471838     0.007504
PD2249   PD        0.684889    0.636023    0.469369     0.005394
AU2250   AU        0.686581    0.667271    0.436070     0.007504
PD2251   PD        0.722172    0.636046    0.439638     0.005394
PD2252   PD        0.719396    0.671467    0.470316     0.005394
PD2253   PD        0.754053    0.637333    0.470132     0.005394
PD2254   PD        0.757397    0.666536    0.438841     0.005394
PD2255   PD        0.794437    0.632827    0.437377     0.005394
PD2256   PD        0.791368    0.670709    0.475088     0.005394
PD2257   PD        0.117937    0.698870    0.471424     0.005394
AU2258   AU        0.150425    0.700900    0.440505     0.007504
PD2259   PD        0.110518    0.744000    0.470576     0.005394
AU2260   AU        0.184472    0.700577    0.472348     0.007504
AU2261   AU        0.184252    0.735202    0.438289     0.007504
AU2262   AU        0.220298    0.702046    0.438481     0.007504
AU2263   AU        0.219466    0.734503    0.471833     0.007504
AU2264   AU        0.256271    0.703168    0.470578     0.007504
AU2265   AU        0.253984    0.734449    0.438231     0.007504
AU2266   AU        0.288971    0.702622    0.435494     0.007504
PD2267   PD        0.292209    0.733593    0.470128     0.005394
AU2268   AU        0.325485    0.701746    0.470222     0.007504
PD2269   PD        0.324862    0.735620    0.437004     0.005394
PD2270   PD        0.359711    0.704111    0.436016     0.005394
PD2271   PD        0.361901    0.734616    0.470385     0.005394
PD2272   PD        0.396009    0.700972    0.471161     0.005394
PD2273   PD        0.398627    0.736590    0.436015     0.005394
PD2274   PD        0.434923    0.701279    0.435910     0.005394
PD2275   PD        0.437861    0.737653    0.467037     0.005394
PD2276   PD        0.473386    0.702659    0.470327     0.005394
PD2277   PD        0.474880    0.735324    0.439185     0.005394
AU2278   AU        0.507979    0.702583    0.435488     0.007504
AU2279   AU        0.510353    0.736596    0.470658     0.007504
PD2280   PD        0.542948    0.702069    0.469962     0.005394
AU2281   AU        0.543021    0.737091    0.435365     0.007504
AU2282   AU        0.577760    0.702554    0.434640     0.007504
AU2283   AU        0.577601    0.735268    0.468371     0.007504
AU2284   AU        0.612737    0.702316    0.469987     0.007504
PD2285   PD        0.614460    0.735815    0.436789     0.005394
AU2286   AU        0.647654    0.701275    0.435754     0.007504
PD2287   PD        0.648183    0.734639    0.468062     0.005394
PD2288   PD        0.683943    0.701177    0.468778     0.005394
PD2289   PD        0.684964    0.732847    0.436910     0.005394
PD2290   PD        0.719481    0.700707    0.435568     0.005394
PD2291   PD        0.721096    0.735308    0.473108     0.005394
PD2292   PD        0.755700    0.701127    0.470325     0.005394
PD2293   PD        0.188938    0.768614    0.473164     0.005394
PD2294   PD        0.217630    0.769206    0.437493     0.005394
PD2295   PD        0.255849    0.768486    0.469122     0.005394
PD2296   PD        0.254107    0.798861    0.437923     0.005394
PD2297   PD        0.291607    0.768692    0.439080     0.005394
PD2298   PD        0.296698    0.803962    0.467742     0.005394
PD2299   PD        0.328326    0.765990    0.471043     0.005394
PD2300   PD        0.329507    0.799037    0.437626     0.005394
PD2301   PD        0.360901    0.767187    0.437949     0.005394
PD2302   PD        0.361594    0.830661    0.502031     0.005394
PD2303   PD        0.402710    0.769851    0.467255     0.005394
PD2304   PD        0.400850    0.802577    0.436812     0.005394
PD2305   PD        0.437083    0.767653    0.433419     0.005394
PD2306   PD        0.437461    0.801714    0.468525     0.005394
PD2307   PD        0.474841    0.768609    0.469458     0.005394
AU2308   AU        0.474676    0.800818    0.436304     0.007504
AU2309   AU        0.509893    0.768598    0.435914     0.007504
PD2310   PD        0.508403    0.798649    0.468364     0.005394
PD2311   PD        0.543817    0.766667    0.470236     0.005394
PD2312   PD        0.542229    0.800776    0.438282     0.005394
AU2313   AU        0.577166    0.768819    0.434985     0.007504
PD2314   PD        0.577612    0.799882    0.471124     0.005394
PD2315   PD        0.611712    0.766084    0.471699     0.005394
PD2316   PD        0.615585    0.798027    0.438781     0.005394
PD2317   PD        0.651028    0.765294    0.436616     0.005394
PD2318   PD        0.724860    0.769530    0.434957     0.005394
PD2319   PD        0.366028    0.797683    0.470692     0.005394
PD2320   PD        0.403886    0.855033    0.462950     0.005394
PD2321   PD        0.437335    0.835338    0.436283     0.005394
PD2322   PD        0.474392    0.832275    0.469749     0.005394
PD2323   PD        0.508099    0.833635    0.436430     0.005394
PD2324   PD        0.258157    0.070489    0.496245     0.005394
PD2325   PD        0.288396    0.043720    0.566548     0.005394
PD2326   PD        0.322691    0.036414    0.536326     0.005394
PD2327   PD        0.367777    0.069206    0.533549     0.005394
PD2328   PD        0.400004    0.071792    0.503022     0.005394
PD2329   PD        0.434189    0.038307    0.500085     0.005394
PD2330   PD        0.434108    0.068764    0.535107     0.005394
PD2331   PD        0.476134    0.072514    0.499383     0.005394
PD2332   PD        0.505652    0.075037    0.538113     0.005394
PD2333   PD        0.538944    0.072623    0.505155     0.005394
PD2334   PD        0.581450    0.069805    0.534787     0.005394
PD2335   PD        0.614491    0.071478    0.504322     0.005394
PD2336   PD        0.184488    0.134591    0.500088     0.005394
PD2337   PD        0.223300    0.104014    0.500771     0.005394
PD2338   PD        0.221290    0.136083    0.533699     0.005394
PD2339   PD        0.256807    0.103706    0.535882     0.005394
AU2340   AU        0.254263    0.138780    0.501765     0.007504
PD2341   PD        0.290849    0.105368    0.501529     0.005394
AU2342   AU        0.291269    0.136924    0.534688     0.007504
PD2343   PD        0.327896    0.101852    0.533292     0.005394
PD2344   PD        0.326296    0.135627    0.502452     0.005394
AU2345   AU        0.363182    0.103652    0.502767     0.007504
AU2346   AU        0.364145    0.137502    0.534379     0.007504
PD2347   PD        0.400116    0.103546    0.535319     0.005394
PD2348   PD        0.398320    0.137711    0.500093     0.005394
PD2349   PD        0.435300    0.105575    0.501819     0.005394
PD2350   PD        0.434438    0.136291    0.537786     0.005394
PD2351   PD        0.471251    0.106297    0.535126     0.005394
PD2352   PD        0.472803    0.139720    0.501179     0.005394
PD2353   PD        0.505213    0.104192    0.501835     0.005394
PD2354   PD        0.510590    0.136195    0.536160     0.005394
PD2355   PD        0.547386    0.102935    0.538205     0.005394
AU2356   AU        0.545275    0.135150    0.503314     0.007504
PD2357   PD        0.579934    0.103171    0.503881     0.005394
AU2358   AU        0.578872    0.137451    0.536586     0.007504
PD2359   PD        0.613776    0.104996    0.535483     0.005394
PD2360   PD        0.611844    0.136334    0.504273     0.005394
PD2361   PD        0.647375    0.103515    0.498448     0.005394
PD2362   PD        0.648280    0.136436    0.536965     0.005394
PD2363   PD        0.687304    0.134039    0.502160     0.005394
PD2364   PD        0.113276    0.200227    0.501287     0.005394
PD2365   PD        0.150981    0.168050    0.503159     0.005394
PD2366   PD        0.151886    0.201710    0.538784     0.005394
PD2367   PD        0.185806    0.164388    0.536071     0.005394
AU2368   AU        0.182765    0.202079    0.503475     0.007504
AU2369   AU        0.219095    0.170678    0.501924     0.007504
AU2370   AU        0.217929    0.200960    0.536842     0.007504
AU2371   AU        0.255409    0.169306    0.536447     0.007504
AU2372   AU        0.255981    0.200565    0.503422     0.007504
AU2373   AU        0.292130    0.169724    0.503392     0.007504
AU2374   AU        0.290364    0.202727    0.536105     0.007504
AU2375   AU        0.326875    0.168786    0.535434     0.007504
AU2376   AU        0.325814    0.201050    0.504388     0.007504
AU2377   AU        0.362730    0.170616    0.500702     0.007504
PD2378   PD        0.362901    0.199871    0.537145     0.005394
AU2379   AU        0.398701    0.168389    0.536247     0.007504
AU2380   AU        0.397770    0.203077    0.502009     0.007504
PD2381   PD        0.435076    0.171034    0.499833     0.005394
AU2382   AU        0.433831    0.202906    0.537680     0.007504
PD2383   PD        0.472269    0.170307    0.535358     0.005394
AU2384   AU        0.473021    0.201267    0.500191     0.007504
PD2385   PD        0.510777    0.169608    0.503278     0.005394
AU2386   AU        0.507016    0.202795    0.535562     0.007504
PD2387   PD        0.543834    0.167476    0.536209     0.005394
PD2388   PD        0.542382    0.202304    0.500078     0.005394
PD2389   PD        0.577406    0.170093    0.503550     0.005394
AU2390   AU        0.579012    0.203166    0.536609     0.007504
AU2391   AU        0.612605    0.171111    0.535932     0.007504
AU2392   AU        0.614501    0.204166    0.503471     0.007504
PD2393   PD        0.646487    0.169730    0.503810     0.005394
PD2394   PD        0.647845    0.203360    0.535621     0.005394
PD2395   PD        0.683520    0.172369    0.535737     0.005394
PD2396   PD        0.685522    0.202131    0.501533     0.005394
PD2397   PD        0.721091    0.169571    0.502057     0.005394
PD2398   PD        0.721506    0.203754    0.535687     0.005394
PD2399   PD        0.788824    0.165806    0.510030     0.005394
PD2400   PD        0.040761    0.272117    0.499296     0.005394
PD2401   PD        0.076252    0.235105    0.501507     0.005394
PD2402   PD        0.078350    0.270114    0.534550     0.005394
PD2403   PD        0.113751    0.236085    0.535567     0.005394
PD2404   PD        0.112935    0.267853    0.503601     0.005394
AU2405   AU        0.147235    0.233401    0.502579     0.007504
AU2406   AU        0.146346    0.265134    0.535654     0.007504
PD2407   PD        0.182998    0.234583    0.534280     0.005394
AU2408   AU        0.180191    0.266859    0.502458     0.007504
PD2409   PD        0.216714    0.235103    0.503644     0.005394
PD2410   PD        0.217419    0.266840    0.536407     0.005394
AU2411   AU        0.252657    0.234469    0.537134     0.007504
AU2412   AU        0.254772    0.267175    0.501778     0.007504
AU2413   AU        0.292314    0.234764    0.501516     0.007504
AU2414   AU        0.291556    0.266631    0.537928     0.007504
AU2415   AU        0.327313    0.235230    0.535241     0.007504
AU2416   AU        0.327114    0.267247    0.502917     0.007504
AU2417   AU        0.363281    0.234534    0.503417     0.007504
AU2418   AU        0.361729    0.266341    0.538441     0.007504
AU2419   AU        0.396862    0.234045    0.538135     0.007504
AU2420   AU        0.399823    0.266315    0.503012     0.007504
AU2421   AU        0.435239    0.233187    0.502500     0.007504
AU2422   AU        0.434608    0.269553    0.536862     0.007504
AU2423   AU        0.469768    0.233890    0.535691     0.007504
AU2424   AU        0.470195    0.268226    0.504256     0.007504
AU2425   AU        0.507754    0.237146    0.503767     0.007504
AU2426   AU        0.505811    0.268619    0.535914     0.007504
AU2427   AU        0.544518    0.234438    0.535648     0.007504
AU2428   AU        0.545641    0.267883    0.501886     0.007504
AU2429   AU        0.579037    0.234297    0.503460     0.007504
AU2430   AU        0.579172    0.269158    0.536019     0.007504
AU2431   AU        0.614650    0.235548    0.536999     0.007504
AU2432   AU        0.613793    0.269324    0.502307     0.007504
AU2433   AU        0.648998    0.237793    0.504486     0.007504
AU2434   AU        0.650242    0.268109    0.537098     0.007504
AU2435   AU        0.684957    0.235626    0.537312     0.007504
PD2436   PD        0.687576    0.269525    0.505474     0.005394
PD2437   PD        0.722844    0.236123    0.505234     0.005394
PD2438   PD        0.721784    0.269609    0.536306     0.005394
PD2439   PD        0.757646    0.232532    0.534167     0.005394
PD2440   PD        0.759010    0.268781    0.504637     0.005394
PD2441   PD        0.789541    0.235834    0.501612     0.005394
PD2442   PD        0.791301    0.267920    0.536190     0.005394
PD2443   PD        0.870074    0.272610    0.538464     0.005394
PD2444   PD        0.043014    0.301859    0.538237     0.005394
PD2445   PD        0.040714    0.334936    0.501678     0.005394
AU2446   AU        0.078354    0.304496    0.502408     0.007504
PD2447   PD        0.078816    0.333580    0.537446     0.005394
AU2448   AU        0.112777    0.302804    0.537262     0.007504
PD2449   PD        0.114072    0.337041    0.504547     0.005394
PD2450   PD        0.147060    0.299876    0.501103     0.005394
AU2451   AU        0.148268    0.334535    0.534949     0.007504
AU2452   AU        0.181427    0.300954    0.535445     0.007504
AU2453   AU        0.182552    0.333894    0.501490     0.007504
AU2454   AU        0.217944    0.299113    0.502149     0.007504
PD2455   PD        0.217685    0.335646    0.538190     0.005394
AU2456   AU        0.255222    0.299273    0.535882     0.007504
AU2457   AU        0.257090    0.330173    0.504680     0.007504
AU2458   AU        0.292240    0.299677    0.503402     0.007504
AU2459   AU        0.291516    0.335661    0.538563     0.007504
AU2460   AU        0.325840    0.300586    0.536881     0.007504
AU2461   AU        0.326359    0.333399    0.502075     0.007504
AU2462   AU        0.361813    0.301367    0.504533     0.007504
AU2463   AU        0.363385    0.334332    0.537138     0.007504
AU2464   AU        0.398652    0.301866    0.535404     0.007504
AU2465   AU        0.398341    0.334020    0.503535     0.007504
AU2466   AU        0.434855    0.302542    0.502250     0.007504
AU2467   AU        0.434061    0.333747    0.538875     0.007504
AU2468   AU        0.471819    0.301089    0.537640     0.007504
AU2469   AU        0.472383    0.334199    0.501990     0.007504
AU2470   AU        0.510313    0.300785    0.503201     0.007504
AU2471   AU        0.509650    0.334251    0.537503     0.007504
AU2472   AU        0.544380    0.300838    0.538075     0.007504
AU2473   AU        0.542962    0.334949    0.503442     0.007504
AU2474   AU        0.580999    0.301223    0.501262     0.007504
AU2475   AU        0.580946    0.336417    0.536608     0.007504
AU2476   AU        0.617763    0.300933    0.536991     0.007504
AU2477   AU        0.614802    0.334422    0.500551     0.007504
AU2478   AU        0.650763    0.300489    0.504761     0.007504
AU2479   AU        0.649674    0.335973    0.534161     0.007504
AU2480   AU        0.686499    0.301773    0.535913     0.007504
AU2481   AU        0.686011    0.336787    0.501861     0.007504
AU2482   AU        0.720772    0.304292    0.501491     0.007504
AU2483   AU        0.719544    0.335522    0.535954     0.007504
PD2484   PD        0.755941    0.302973    0.536924     0.005394
PD2485   PD        0.756343    0.332302    0.501560     0.005394
PD2486   PD        0.791997    0.301440    0.504988     0.005394
PD2487   PD        0.789805    0.336855    0.534690     0.005394
PD2488   PD        0.895360    0.324093    0.510957     0.005394
PD2489   PD        0.825056    0.335002    0.503442     0.005394
PD2490   PD        0.047319    0.367564    0.538321     0.005394
PD2491   PD        0.043705    0.401000    0.500720     0.005394
PD2492   PD        0.077152    0.364866    0.504952     0.005394
AU2493   AU        0.078495    0.401439    0.537114     0.007504
AU2494   AU        0.114976    0.365363    0.538991     0.007504
PD2495   PD        0.112597    0.398399    0.503302     0.005394
PD2496   PD        0.150622    0.367508    0.501612     0.005394
AU2497   AU        0.146540    0.400919    0.537257     0.007504
AU2498   AU        0.182539    0.368150    0.535601     0.007504
AU2499   AU        0.182207    0.403018    0.504888     0.007504
PD2500   PD        0.218792    0.370333    0.504195     0.005394
AU2501   AU        0.219858    0.401119    0.539629     0.007504
AU2502   AU        0.254824    0.368305    0.536338     0.007504
AU2503   AU        0.254071    0.400250    0.501972     0.007504
AU2504   AU        0.289637    0.365597    0.502696     0.007504
AU2505   AU        0.289000    0.401870    0.535726     0.007504
AU2506   AU        0.325052    0.367575    0.535668     0.007504
AU2507   AU        0.324821    0.400975    0.504671     0.007504
AU2508   AU        0.364207    0.367498    0.502458     0.007504
AU2509   AU        0.365122    0.400464    0.536348     0.007504
AU2510   AU        0.399052    0.369908    0.537843     0.007504
AU2511   AU        0.400062    0.401185    0.502904     0.007504
AU2512   AU        0.434644    0.366361    0.503851     0.007504
AU2513   AU        0.436208    0.404417    0.537824     0.007504
AU2514   AU        0.471667    0.370919    0.537921     0.007504
AU2515   AU        0.472900    0.401757    0.502731     0.007504
AU2516   AU        0.507591    0.368172    0.501365     0.007504
AU2517   AU        0.507951    0.402974    0.536620     0.007504
AU2518   AU        0.543642    0.369187    0.537769     0.007504
AU2519   AU        0.542545    0.403168    0.503583     0.007504
AU2520   AU        0.580680    0.370280    0.505487     0.007504
AU2521   AU        0.579466    0.401911    0.538106     0.007504
AU2522   AU        0.616584    0.370958    0.538518     0.007504
AU2523   AU        0.616608    0.403054    0.503619     0.007504
PD2524   PD        0.648997    0.369645    0.503264     0.005394
AU2525   AU        0.650794    0.403407    0.537723     0.007504
AU2526   AU        0.686496    0.368434    0.536338     0.007504
PD2527   PD        0.685537    0.401685    0.502255     0.005394
AU2528   AU        0.722311    0.369455    0.503280     0.007504
AU2529   AU        0.720349    0.403374    0.535173     0.007504
AU2530   AU        0.756903    0.369294    0.537624     0.007504
AU2531   AU        0.753991    0.403397    0.502519     0.007504
AU2532   AU        0.788779    0.370170    0.501322     0.007504
PD2533   PD        0.791151    0.401441    0.534162     0.005394
PD2534   PD        0.825225    0.367813    0.538304     0.005394
PD2535   PD        0.825595    0.404907    0.501506     0.005394
PD2536   PD        0.008129    0.435921    0.503779     0.005394
PD2537   PD        0.043786    0.433494    0.536462     0.005394
PD2538   PD        0.041751    0.467012    0.503882     0.005394
PD2539   PD        0.076626    0.435264    0.504440     0.005394
PD2540   PD        0.074925    0.467887    0.536530     0.005394
AU2541   AU        0.112266    0.434151    0.537233     0.007504
AU2542   AU        0.112879    0.466613    0.503867     0.007504
AU2543   AU        0.149766    0.436170    0.503453     0.007504
AU2544   AU        0.148383    0.466803    0.538548     0.007504
AU2545   AU        0.182046    0.433498    0.538192     0.007504
AU2546   AU        0.186101    0.469241    0.504610     0.007504
AU2547   AU        0.220049    0.433698    0.503852     0.007504
AU2548   AU        0.219078    0.468015    0.538510     0.007504
PD2549   PD        0.252705    0.437928    0.538266     0.005394
AU2550   AU        0.255064    0.468089    0.503369     0.007504
AU2551   AU        0.289079    0.434953    0.504135     0.007504
AU2552   AU        0.289298    0.469939    0.536697     0.007504
AU2553   AU        0.325280    0.435458    0.534682     0.007504
AU2554   AU        0.325105    0.470300    0.504225     0.007504
AU2555   AU        0.362812    0.434994    0.501698     0.007504
AU2556   AU        0.360434    0.470522    0.536647     0.007504
AU2557   AU        0.398258    0.434660    0.538197     0.007504
AU2558   AU        0.397355    0.468502    0.502847     0.007504
AU2559   AU        0.436437    0.435673    0.504466     0.007504
AU2560   AU        0.434593    0.469447    0.538011     0.007504
AU2561   AU        0.473113    0.434356    0.538298     0.007504
AU2562   AU        0.469673    0.469798    0.504788     0.007504
AU2563   AU        0.506134    0.437107    0.505496     0.007504
AU2564   AU        0.506280    0.469813    0.538714     0.007504
AU2565   AU        0.546196    0.434258    0.536332     0.007504
AU2566   AU        0.544049    0.468739    0.502202     0.007504
AU2567   AU        0.578426    0.434318    0.501812     0.007504
AU2568   AU        0.580229    0.469977    0.536631     0.007504
AU2569   AU        0.613537    0.436845    0.537377     0.007504
AU2570   AU        0.614717    0.467867    0.504505     0.007504
AU2571   AU        0.651696    0.436014    0.502983     0.007504
AU2572   AU        0.652583    0.467684    0.537874     0.007504
AU2573   AU        0.686183    0.434645    0.535575     0.007504
AU2574   AU        0.686810    0.469067    0.503117     0.007504
AU2575   AU        0.721470    0.436263    0.500260     0.007504
AU2576   AU        0.722688    0.470454    0.535160     0.007504
AU2577   AU        0.756142    0.436257    0.535889     0.007504
AU2578   AU        0.754175    0.467307    0.500941     0.007504
AU2579   AU        0.791014    0.437579    0.501877     0.007504
PD2580   PD        0.790422    0.468879    0.535472     0.005394
AU2581   AU        0.824959    0.436392    0.535805     0.007504
PD2582   PD        0.826668    0.469183    0.502558     0.005394
PD2583   PD        0.862910    0.470242    0.534564     0.005394
PD2584   PD        0.043296    0.504005    0.539066     0.005394
PD2585   PD        0.041314    0.535744    0.498048     0.005394
PD2586   PD        0.074897    0.501960    0.503422     0.005394
PD2587   PD        0.079404    0.537777    0.537577     0.005394
PD2588   PD        0.117734    0.503100    0.537796     0.005394
PD2589   PD        0.114035    0.536135    0.504044     0.005394
PD2590   PD        0.147665    0.502323    0.501466     0.005394
AU2591   AU        0.148595    0.537191    0.536312     0.007504
PD2592   PD        0.182603    0.503379    0.535284     0.005394
PD2593   PD        0.185959    0.536558    0.503255     0.005394
AU2594   AU        0.219942    0.500374    0.503201     0.007504
PD2595   PD        0.219786    0.534702    0.537390     0.005394
AU2596   AU        0.255534    0.500062    0.538485     0.007504
AU2597   AU        0.255627    0.534633    0.502880     0.007504
AU2598   AU        0.288545    0.502320    0.503220     0.007504
AU2599   AU        0.292670    0.537827    0.537441     0.007504
AU2600   AU        0.325715    0.503124    0.536957     0.007504
AU2601   AU        0.327164    0.537236    0.503313     0.007504
AU2602   AU        0.361584    0.502925    0.502500     0.007504
AU2603   AU        0.362235    0.535944    0.535658     0.007504
AU2604   AU        0.397315    0.502621    0.536891     0.007504
AU2605   AU        0.396994    0.537244    0.501522     0.007504
AU2606   AU        0.435581    0.503683    0.502367     0.007504
AU2607   AU        0.433041    0.536882    0.538032     0.007504
AU2608   AU        0.469728    0.503960    0.536731     0.007504
AU2609   AU        0.471747    0.536559    0.504827     0.007504
AU2610   AU        0.506399    0.503419    0.504637     0.007504
AU2611   AU        0.506874    0.537703    0.536036     0.007504
AU2612   AU        0.542571    0.503657    0.536741     0.007504
AU2613   AU        0.542987    0.536186    0.504853     0.007504
AU2614   AU        0.580340    0.503756    0.502139     0.007504
AU2615   AU        0.582255    0.538096    0.535818     0.007504
AU2616   AU        0.615518    0.501892    0.537110     0.007504
AU2617   AU        0.617849    0.537049    0.502737     0.007504
AU2618   AU        0.651856    0.503411    0.504953     0.007504
AU2619   AU        0.651416    0.536982    0.536246     0.007504
AU2620   AU        0.685972    0.503316    0.536141     0.007504
AU2621   AU        0.688949    0.537128    0.503007     0.007504
AU2622   AU        0.722014    0.502551    0.501685     0.007504
AU2623   AU        0.721591    0.534644    0.536709     0.007504
AU2624   AU        0.757512    0.501989    0.535527     0.007504
AU2625   AU        0.755578    0.536296    0.503230     0.007504
PD2626   PD        0.790277    0.500038    0.502277     0.005394
PD2627   PD        0.790854    0.535683    0.535448     0.005394
PD2628   PD        0.864352    0.506089    0.569736     0.005394
PD2629   PD        0.824102    0.533348    0.501276     0.005394
PD2630   PD        0.043859    0.565287    0.535999     0.005394
PD2631   PD        0.041385    0.612701    0.506374     0.005394
PD2632   PD        0.078384    0.568131    0.503414     0.005394
PD2633   PD        0.074992    0.601165    0.538019     0.005394
PD2634   PD        0.112828    0.570489    0.537633     0.005394
AU2635   AU        0.113369    0.602611    0.505966     0.007504
PD2636   PD        0.148680    0.572588    0.504485     0.005394
AU2637   AU        0.149347    0.603469    0.537832     0.007504
PD2638   PD        0.184196    0.570895    0.537745     0.005394
AU2639   AU        0.186346    0.604211    0.503783     0.007504
AU2640   AU        0.221779    0.569020    0.504209     0.007504
AU2641   AU        0.222861    0.602817    0.538627     0.007504
AU2642   AU        0.255098    0.569723    0.536644     0.007504
AU2643   AU        0.255451    0.604501    0.503602     0.007504
AU2644   AU        0.290322    0.569316    0.502997     0.007504
AU2645   AU        0.292654    0.603555    0.537857     0.007504
AU2646   AU        0.327419    0.571212    0.538356     0.007504
AU2647   AU        0.327282    0.604988    0.503984     0.007504
AU2648   AU        0.362470    0.570476    0.503457     0.007504
AU2649   AU        0.362598    0.604512    0.535567     0.007504
AU2650   AU        0.397922    0.571440    0.538520     0.007504
AU2651   AU        0.399206    0.603691    0.504589     0.007504
AU2652   AU        0.434296    0.568952    0.502811     0.007504
AU2653   AU        0.433339    0.605087    0.536781     0.007504
AU2654   AU        0.467273    0.570011    0.536293     0.007504
AU2655   AU        0.471082    0.602962    0.503126     0.007504
AU2656   AU        0.506637    0.569123    0.502981     0.007504
AU2657   AU        0.506502    0.601945    0.537123     0.007504
AU2658   AU        0.544177    0.570994    0.536517     0.007504
AU2659   AU        0.542620    0.604023    0.502784     0.007504
AU2660   AU        0.580095    0.571335    0.504256     0.007504
AU2661   AU        0.580119    0.603551    0.537587     0.007504
AU2662   AU        0.616962    0.571571    0.535229     0.007504
AU2663   AU        0.616443    0.604833    0.504199     0.007504
AU2664   AU        0.651431    0.570357    0.502422     0.007504
AU2665   AU        0.651360    0.604699    0.538077     0.007504
AU2666   AU        0.686727    0.570343    0.537478     0.007504
AU2667   AU        0.686462    0.604939    0.502708     0.007504
AU2668   AU        0.721730    0.570280    0.505117     0.007504
AU2669   AU        0.722814    0.603911    0.535268     0.007504
PD2670   PD        0.756896    0.568445    0.535373     0.005394
PD2671   PD        0.756085    0.603712    0.502675     0.005394
PD2672   PD        0.788741    0.568860    0.503367     0.005394
PD2673   PD        0.791283    0.602386    0.535288     0.005394
PD2674   PD        0.825769    0.571503    0.538555     0.005394
PD2675   PD        0.860481    0.647772    0.510503     0.005394
PD2676   PD        0.076077    0.633056    0.504996     0.005394
PD2677   PD        0.115341    0.634679    0.538633     0.005394
PD2678   PD        0.112580    0.666205    0.505459     0.005394
AU2679   AU        0.149565    0.635116    0.502874     0.007504
PD2680   PD        0.148970    0.665460    0.535883     0.005394
PD2681   PD        0.184595    0.636135    0.535514     0.005394
AU2682   AU        0.186564    0.669400    0.503464     0.007504
AU2683   AU        0.222152    0.637802    0.504630     0.007504
AU2684   AU        0.220974    0.669607    0.536251     0.007504
AU2685   AU        0.257347    0.636699    0.537928     0.007504
AU2686   AU        0.256985    0.668521    0.502307     0.007504
AU2687   AU        0.291233    0.636559    0.501983     0.007504
PD2688   PD        0.293133    0.668840    0.536593     0.005394
AU2689   AU        0.325824    0.637484    0.536289     0.007504
AU2690   AU        0.326444    0.668567    0.505013     0.007504
AU2691   AU        0.363067    0.637002    0.503441     0.007504
AU2692   AU        0.364319    0.669179    0.537960     0.007504
AU2693   AU        0.398688    0.635848    0.537252     0.007504
AU2694   AU        0.400212    0.668285    0.503081     0.007504
AU2695   AU        0.434892    0.635891    0.501852     0.007504
AU2696   AU        0.433305    0.668560    0.537057     0.007504
AU2697   AU        0.471897    0.636760    0.536055     0.007504
AU2698   AU        0.472889    0.667973    0.504245     0.007504
AU2699   AU        0.508230    0.634917    0.502341     0.007504
AU2700   AU        0.509065    0.669172    0.537633     0.007504
AU2701   AU        0.543731    0.634956    0.536297     0.007504
AU2702   AU        0.544634    0.667704    0.502685     0.007504
AU2703   AU        0.579624    0.634187    0.504217     0.007504
AU2704   AU        0.579638    0.667475    0.537419     0.007504
AU2705   AU        0.616403    0.637596    0.537469     0.007504
AU2706   AU        0.614847    0.670592    0.504213     0.007504
AU2707   AU        0.652011    0.637037    0.503117     0.007504
AU2708   AU        0.651399    0.669459    0.536146     0.007504
PD2709   PD        0.686441    0.634743    0.538471     0.005394
AU2710   AU        0.685490    0.671687    0.503500     0.007504
PD2711   PD        0.718658    0.636205    0.504087     0.005394
PD2712   PD        0.723457    0.667853    0.537348     0.005394
PD2713   PD        0.759051    0.632707    0.536441     0.005394
PD2714   PD        0.755625    0.707559    0.538504     0.005394
PD2715   PD        0.792927    0.630031    0.499773     0.005394
PD2716   PD        0.151421    0.698154    0.504441     0.005394
AU2717   AU        0.185501    0.700926    0.538075     0.007504
PD2718   PD        0.184901    0.732949    0.502851     0.005394
AU2719   AU        0.219287    0.703431    0.503349     0.007504
AU2720   AU        0.223286    0.734221    0.537478     0.007504
PD2721   PD        0.257131    0.701881    0.535402     0.005394
AU2722   AU        0.256884    0.734089    0.502295     0.007504
AU2723   AU        0.289610    0.701556    0.503089     0.007504
PD2724   PD        0.292594    0.737077    0.537903     0.005394
AU2725   AU        0.328154    0.701265    0.536741     0.007504
PD2726   PD        0.324303    0.733569    0.504261     0.005394
PD2727   PD        0.362602    0.700551    0.501515     0.005394
PD2728   PD        0.361880    0.734824    0.537258     0.005394
AU2729   AU        0.398726    0.701861    0.536651     0.007504
PD2730   PD        0.398860    0.734269    0.502751     0.005394
PD2731   PD        0.432197    0.701297    0.504346     0.005394
PD2732   PD        0.436594    0.733273    0.535123     0.005394
PD2733   PD        0.472623    0.703447    0.535469     0.005394
PD2734   PD        0.476398    0.735975    0.502823     0.005394
AU2735   AU        0.509414    0.699804    0.504201     0.007504
PD2736   PD        0.507916    0.737038    0.536408     0.005394
PD2737   PD        0.544579    0.700376    0.534256     0.005394
AU2738   AU        0.544896    0.735771    0.503745     0.007504
AU2739   AU        0.578218    0.700779    0.504191     0.007504
AU2740   AU        0.579386    0.735596    0.535392     0.007504
AU2741   AU        0.613248    0.701016    0.538453     0.007504
AU2742   AU        0.613550    0.733552    0.502855     0.007504
AU2743   AU        0.649692    0.703284    0.502464     0.007504
AU2744   AU        0.648221    0.736385    0.536510     0.007504
PD2745   PD        0.684041    0.701319    0.535885     0.005394
PD2746   PD        0.681619    0.734797    0.501133     0.005394
PD2747   PD        0.723898    0.703666    0.503956     0.005394
PD2748   PD        0.222811    0.767034    0.506714     0.005394
PD2749   PD        0.256120    0.767776    0.539221     0.005394
PD2750   PD        0.252961    0.830214    0.540903     0.005394
PD2751   PD        0.292835    0.767264    0.503595     0.005394
PD2752   PD        0.291318    0.806833    0.541181     0.005394
PD2753   PD        0.327994    0.768482    0.534400     0.005394
PD2754   PD        0.327225    0.800556    0.505468     0.005394
PD2755   PD        0.366926    0.767682    0.503482     0.005394
PD2756   PD        0.363384    0.799349    0.534812     0.005394
PD2757   PD        0.399395    0.766596    0.535608     0.005394
PD2758   PD        0.401483    0.802546    0.502545     0.005394
PD2759   PD        0.437391    0.765883    0.503717     0.005394
PD2760   PD        0.434543    0.799953    0.537502     0.005394
PD2761   PD        0.469483    0.768544    0.536922     0.005394
PD2762   PD        0.470016    0.797963    0.502146     0.005394
PD2763   PD        0.507233    0.769879    0.504300     0.005394
AU2764   AU        0.504834    0.799759    0.539746     0.007504
PD2765   PD        0.545589    0.769825    0.537828     0.005394
PD2766   PD        0.539751    0.801802    0.501952     0.005394
AU2767   AU        0.578896    0.768730    0.503048     0.007504
PD2768   PD        0.576171    0.803650    0.537960     0.005394
PD2769   PD        0.613208    0.766596    0.535193     0.005394
PD2770   PD        0.613219    0.871808    0.503642     0.005394
PD2771   PD        0.646760    0.765985    0.501061     0.005394
PD2772   PD        0.437734    0.828918    0.503007     0.005394
PD2773   PD        0.326615    0.071112    0.568546     0.005394
PD2774   PD        0.362688    0.073473    0.601180     0.005394
PD2775   PD        0.400236    0.073278    0.568384     0.005394
PD2776   PD        0.446157    0.069106    0.605308     0.005394
PD2777   PD        0.472654    0.072895    0.564651     0.005394
PD2778   PD        0.508839    0.074513    0.601981     0.005394
PD2779   PD        0.542174    0.073205    0.565510     0.005394
PD2780   PD        0.187209    0.134606    0.570073     0.005394
PD2781   PD        0.221486    0.133405    0.601421     0.005394
PD2782   PD        0.187609    0.097746    0.600260     0.005394
PD2783   PD        0.254802    0.136968    0.570351     0.005394
PD2784   PD        0.293754    0.105487    0.567730     0.005394
PD2785   PD        0.290848    0.138811    0.602078     0.005394
PD2786   PD        0.328592    0.106452    0.597925     0.005394
PD2787   PD        0.329111    0.137829    0.565889     0.005394
PD2788   PD        0.366950    0.107242    0.568084     0.005394
PD2789   PD        0.361618    0.135477    0.604284     0.005394
PD2790   PD        0.397717    0.106938    0.602136     0.005394
PD2791   PD        0.400779    0.138237    0.568433     0.005394
PD2792   PD        0.435464    0.103490    0.570934     0.005394
PD2793   PD        0.433825    0.135844    0.602534     0.005394
PD2794   PD        0.470518    0.107775    0.600520     0.005394
PD2795   PD        0.470938    0.135944    0.569577     0.005394
PD2796   PD        0.507157    0.107687    0.571832     0.005394
AU2797   AU        0.506470    0.137499    0.605095     0.007504
PD2798   PD        0.541946    0.107071    0.600007     0.005394
PD2799   PD        0.543083    0.135080    0.573202     0.005394
PD2800   PD        0.582085    0.107696    0.571332     0.005394
PD2801   PD        0.579930    0.137523    0.602946     0.005394
PD2802   PD        0.614570    0.104967    0.605000     0.005394
PD2803   PD        0.613305    0.134506    0.570738     0.005394
PD2804   PD        0.649592    0.136406    0.601781     0.005394
PD2805   PD        0.716715    0.136533    0.536230     0.005394
PD2806   PD        0.150416    0.133517    0.602249     0.005394
PD2807   PD        0.153792    0.168480    0.572177     0.005394
PD2808   PD        0.148737    0.204349    0.601906     0.005394
PD2809   PD        0.186625    0.165888    0.606081     0.005394
PD2810   PD        0.186565    0.202200    0.570304     0.005394
AU2811   AU        0.221518    0.170207    0.569502     0.007504
AU2812   AU        0.221588    0.201673    0.602608     0.007504
PD2813   PD        0.255603    0.168468    0.600565     0.005394
AU2814   AU        0.254993    0.201418    0.569814     0.007504
PD2815   PD        0.291496    0.169471    0.567555     0.005394
PD2816   PD        0.289309    0.201386    0.604414     0.005394
PD2817   PD        0.325286    0.169711    0.603653     0.005394
PD2818   PD        0.327944    0.203592    0.569341     0.005394
AU2819   AU        0.363281    0.170565    0.569954     0.007504
AU2820   AU        0.363802    0.204492    0.604731     0.007504
AU2821   AU        0.398501    0.168839    0.605523     0.007504
AU2822   AU        0.397359    0.201794    0.570270     0.007504
PD2823   PD        0.434132    0.169695    0.569661     0.005394
AU2824   AU        0.433977    0.201092    0.601500     0.007504
AU2825   AU        0.471863    0.168796    0.602663     0.007504
AU2826   AU        0.473209    0.203431    0.569123     0.007504
AU2827   AU        0.506897    0.168867    0.568434     0.007504
AU2828   AU        0.506203    0.200514    0.602144     0.007504
PD2829   PD        0.545705    0.170728    0.603866     0.005394
AU2830   AU        0.541571    0.203875    0.569132     0.007504
PD2831   PD        0.577951    0.171384    0.568341     0.005394
PD2832   PD        0.577370    0.202522    0.604128     0.005394
PD2833   PD        0.615781    0.169726    0.603611     0.005394
AU2834   AU        0.613271    0.203935    0.570344     0.007504
PD2835   PD        0.650370    0.172955    0.568701     0.005394
PD2836   PD        0.649368    0.201386    0.603854     0.005394
PD2837   PD        0.757163    0.098944    0.608174     0.005394
AU2838   AU        0.687183    0.202079    0.571630     0.007504
PD2839   PD        0.720181    0.170693    0.569556     0.005394
PD2840   PD        0.723441    0.200594    0.602547     0.005394
PD2841   PD        0.760567    0.207060    0.571030     0.005394
PD2842   PD        0.000714    0.302508    0.636524     0.005394
PD2843   PD        0.112805    0.232877    0.603450     0.005394
PD2844   PD        0.112561    0.269828    0.568123     0.005394
PD2845   PD        0.147574    0.233012    0.570717     0.005394
PD2846   PD        0.147475    0.267762    0.599979     0.005394
PD2847   PD        0.183244    0.233628    0.601382     0.005394
PD2848   PD        0.182143    0.266185    0.569802     0.005394
AU2849   AU        0.221100    0.235973    0.572442     0.007504
PD2850   PD        0.221918    0.268714    0.604924     0.005394
AU2851   AU        0.255882    0.233613    0.604234     0.007504
PD2852   PD        0.255706    0.267648    0.572372     0.005394
AU2853   AU        0.290751    0.232754    0.569364     0.007504
AU2854   AU        0.292417    0.268884    0.604773     0.007504
AU2855   AU        0.327807    0.234670    0.604268     0.007504
AU2856   AU        0.325775    0.267341    0.570800     0.007504
AU2857   AU        0.361763    0.235959    0.570511     0.007504
AU2858   AU        0.362205    0.265983    0.605679     0.007504
AU2859   AU        0.399431    0.235616    0.603099     0.007504
PD2860   PD        0.397517    0.268323    0.571376     0.005394
AU2861   AU        0.435560    0.236454    0.571038     0.007504
AU2862   AU        0.436124    0.267118    0.604404     0.007504
AU2863   AU        0.470096    0.235442    0.606128     0.007504
AU2864   AU        0.470652    0.267397    0.571570     0.007504
AU2865   AU        0.506928    0.234826    0.570236     0.007504
PD2866   PD        0.504483    0.267947    0.603450     0.005394
PD2867   PD        0.541134    0.237298    0.602769     0.005394
PD2868   PD        0.540532    0.268755    0.569686     0.005394
AU2869   AU        0.580595    0.235830    0.568309     0.007504
AU2870   AU        0.581036    0.268177    0.605166     0.007504
PD2871   PD        0.616142    0.235713    0.604642     0.005394
AU2872   AU        0.614927    0.267107    0.570796     0.007504
AU2873   AU        0.649460    0.233911    0.569752     0.007504
AU2874   AU        0.652271    0.268030    0.601206     0.007504
AU2875   AU        0.687771    0.234461    0.601259     0.007504
AU2876   AU        0.687846    0.268957    0.568685     0.007504
PD2877   PD        0.722853    0.234895    0.569352     0.005394
AU2878   AU        0.720032    0.269644    0.601667     0.007504
PD2879   PD        0.757020    0.238652    0.601371     0.005394
PD2880   PD        0.756818    0.267587    0.568292     0.005394
PD2881   PD        0.792214    0.271822    0.601107     0.005394
PD2882   PD        0.044366    0.336026    0.572161     0.005394
PD2883   PD        0.080207    0.303238    0.569410     0.005394
PD2884   PD        0.077323    0.335352    0.604657     0.005394
PD2885   PD        0.113405    0.301333    0.603332     0.005394
AU2886   AU        0.115304    0.335784    0.571104     0.007504
AU2887   AU        0.148979    0.303151    0.568773     0.007504
AU2888   AU        0.147102    0.333097    0.603898     0.007504
PD2889   PD        0.181477    0.301822    0.604581     0.005394
AU2890   AU        0.182649    0.337445    0.570291     0.007504
PD2891   PD        0.216848    0.300340    0.569786     0.005394
PD2892   PD        0.218523    0.335174    0.604045     0.005394
PD2893   PD        0.254303    0.300816    0.605794     0.005394
AU2894   AU        0.256672    0.335967    0.571245     0.007504
AU2895   AU        0.291064    0.301122    0.571291     0.007504
AU2896   AU        0.289010    0.334958    0.603434     0.007504
AU2897   AU        0.327586    0.300688    0.604125     0.007504
AU2898   AU        0.327233    0.333379    0.569983     0.007504
AU2899   AU        0.362080    0.300674    0.572396     0.007504
AU2900   AU        0.360798    0.334522    0.605540     0.007504
AU2901   AU        0.399409    0.301962    0.605301     0.007504
AU2902   AU        0.399698    0.334939    0.572999     0.007504
AU2903   AU        0.435940    0.299366    0.570562     0.007504
AU2904   AU        0.437936    0.335684    0.604778     0.007504
AU2905   AU        0.470037    0.300370    0.604610     0.007504
AU2906   AU        0.470321    0.334172    0.570261     0.007504
AU2907   AU        0.506312    0.301233    0.568874     0.007504
AU2908   AU        0.506256    0.333781    0.603278     0.007504
AU2909   AU        0.542233    0.302849    0.603833     0.007504
AU2910   AU        0.545149    0.334756    0.569991     0.007504
AU2911   AU        0.581568    0.302715    0.570096     0.007504
AU2912   AU        0.580669    0.336718    0.603221     0.007504
AU2913   AU        0.614034    0.304144    0.602916     0.007504
AU2914   AU        0.615655    0.335889    0.569383     0.007504
AU2915   AU        0.651298    0.301547    0.568686     0.007504
PD2916   PD        0.649770    0.334172    0.602097     0.005394
PD2917   PD        0.687768    0.301935    0.601064     0.005394
AU2918   AU        0.685896    0.333208    0.570792     0.007504
PD2919   PD        0.723097    0.301488    0.567229     0.005394
AU2920   AU        0.723168    0.336797    0.604206     0.007504
AU2921   AU        0.755259    0.303438    0.600384     0.007504
PD2922   PD        0.756663    0.335470    0.569304     0.005394
PD2923   PD        0.794381    0.302915    0.568479     0.005394
PD2924   PD        0.790840    0.337793    0.601205     0.005394
PD2925   PD        0.829070    0.338668    0.564525     0.005394
PD2926   PD        0.036933    0.369880    0.598058     0.005394
PD2927   PD        0.042455    0.398926    0.573237     0.005394
PD2928   PD        0.079113    0.367570    0.570160     0.005394
AU2929   AU        0.077985    0.400473    0.604595     0.007504
AU2930   AU        0.113354    0.369101    0.604251     0.007504
PD2931   PD        0.112313    0.400423    0.571888     0.005394
AU2932   AU        0.150437    0.368836    0.570377     0.007504
PD2933   PD        0.148902    0.401069    0.607460     0.005394
PD2934   PD        0.182485    0.367784    0.605909     0.005394
AU2935   AU        0.182686    0.402650    0.570175     0.007504
AU2936   AU        0.219104    0.367941    0.570388     0.007504
AU2937   AU        0.219253    0.403251    0.605762     0.007504
AU2938   AU        0.254574    0.368878    0.605384     0.007504
AU2939   AU        0.256796    0.402040    0.572224     0.007504
AU2940   AU        0.290762    0.367207    0.571154     0.007504
AU2941   AU        0.291532    0.401519    0.606390     0.007504
AU2942   AU        0.326228    0.368968    0.604840     0.007504
PD2943   PD        0.326642    0.400167    0.572384     0.005394
AU2944   AU        0.362592    0.369598    0.571631     0.007504
AU2945   AU        0.362904    0.402321    0.605690     0.007504
AU2946   AU        0.397254    0.367201    0.605281     0.007504
AU2947   AU        0.399694    0.402519    0.573851     0.007504
AU2948   AU        0.434835    0.369213    0.573244     0.007504
AU2949   AU        0.437123    0.400918    0.605206     0.007504
AU2950   AU        0.471771    0.367271    0.606207     0.007504
AU2951   AU        0.472816    0.402418    0.571210     0.007504
AU2952   AU        0.508770    0.369567    0.570206     0.007504
AU2953   AU        0.506864    0.403617    0.606690     0.007504
AU2954   AU        0.543039    0.369850    0.603842     0.007504
AU2955   AU        0.544028    0.403336    0.570687     0.007504
AU2956   AU        0.579850    0.368473    0.571324     0.007504
AU2957   AU        0.580462    0.401935    0.603372     0.007504
AU2958   AU        0.614548    0.370554    0.603425     0.007504
AU2959   AU        0.615494    0.404762    0.570841     0.007504
AU2960   AU        0.651601    0.368782    0.569162     0.007504
AU2961   AU        0.650525    0.403055    0.606428     0.007504
PD2962   PD        0.684536    0.368800    0.602524     0.005394
AU2963   AU        0.686293    0.403634    0.570834     0.007504
PD2964   PD        0.720213    0.369321    0.568722     0.005394
PD2965   PD        0.723012    0.403283    0.603603     0.005394
PD2966   PD        0.755632    0.371146    0.599512     0.005394
PD2967   PD        0.758804    0.404215    0.568530     0.005394
PD2968   PD        0.788648    0.369756    0.569071     0.005394
PD2969   PD        0.795278    0.405810    0.602531     0.005394
PD2970   PD        0.828397    0.367701    0.600775     0.005394
PD2971   PD        0.825605    0.402724    0.568597     0.005394
PD2972   PD        0.043857    0.436577    0.600491     0.005394
PD2973   PD        0.009842    0.433303    0.569094     0.005394
PD2974   PD        0.077424    0.434040    0.570895     0.005394
PD2975   PD        0.078755    0.464445    0.604953     0.005394
AU2976   AU        0.113537    0.434250    0.604213     0.007504
PD2977   PD        0.110644    0.468675    0.569779     0.005394
AU2978   AU        0.146289    0.432704    0.569287     0.007504
AU2979   AU        0.145580    0.467276    0.604548     0.007504
AU2980   AU        0.183377    0.434438    0.605512     0.007504
PD2981   PD        0.184104    0.466553    0.570515     0.005394
AU2982   AU        0.220143    0.435273    0.571611     0.007504
AU2983   AU        0.217889    0.467333    0.604747     0.007504
AU2984   AU        0.253628    0.436162    0.606017     0.007504
AU2985   AU        0.254752    0.467900    0.573042     0.007504
AU2986   AU        0.292371    0.434511    0.570878     0.007504
AU2987   AU        0.291242    0.468268    0.604681     0.007504
AU2988   AU        0.327476    0.434736    0.604423     0.007504
AU2989   AU        0.326770    0.470105    0.568081     0.007504
AU2990   AU        0.363224    0.435114    0.569378     0.007504
AU2991   AU        0.363195    0.468631    0.604206     0.007504
AU2992   AU        0.398708    0.436558    0.605845     0.007504
AU2993   AU        0.398179    0.468860    0.571959     0.007504
AU2994   AU        0.435719    0.434394    0.573462     0.007504
AU2995   AU        0.436062    0.468779    0.606438     0.007504
AU2996   AU        0.471820    0.434077    0.604454     0.007504
AU2997   AU        0.470102    0.467934    0.569724     0.007504
AU2998   AU        0.507785    0.435643    0.571597     0.007504
AU2999   AU        0.509243    0.468273    0.603335     0.007504
AU3000   AU        0.544964    0.436861    0.604521     0.007504
AU3001   AU        0.544483    0.470311    0.571063     0.007504
AU3002   AU        0.580896    0.435136    0.572060     0.007504
AU3003   AU        0.579038    0.471212    0.604805     0.007504
AU3004   AU        0.616063    0.436390    0.603912     0.007504
AU3005   AU        0.614467    0.472238    0.570286     0.007504
AU3006   AU        0.649854    0.436075    0.569674     0.007504
AU3007   AU        0.652150    0.470590    0.603092     0.007504
AU3008   AU        0.687811    0.437019    0.603565     0.007504
AU3009   AU        0.686872    0.467766    0.569110     0.007504
AU3010   AU        0.721594    0.436630    0.569507     0.007504
AU3011   AU        0.722701    0.469941    0.601275     0.007504
AU3012   AU        0.755392    0.437051    0.603095     0.007504
AU3013   AU        0.756681    0.469541    0.568272     0.007504
PD3014   PD        0.792154    0.439667    0.570792     0.005394
PD3015   PD        0.791103    0.469181    0.601915     0.005394
PD3016   PD        0.865189    0.467233    0.599900     0.005394
PD3017   PD        0.829626    0.469125    0.571086     0.005394
PD3018   PD        0.045380    0.499510    0.604159     0.005394
PD3019   PD        0.040672    0.535291    0.570795     0.005394
PD3020   PD        0.078937    0.505110    0.569292     0.005394
PD3021   PD        0.079816    0.534262    0.604309     0.005394
PD3022   PD        0.111316    0.501398    0.602922     0.005394
AU3023   AU        0.112793    0.535604    0.571262     0.007504
PD3024   PD        0.151062    0.498877    0.573253     0.005394
PD3025   PD        0.145740    0.533318    0.605315     0.005394
PD3026   PD        0.185719    0.502421    0.604636     0.005394
PD3027   PD        0.183736    0.533721    0.570130     0.005394
PD3028   PD        0.220072    0.501467    0.572229     0.005394
PD3029   PD        0.221436    0.534778    0.606404     0.005394
AU3030   AU        0.254499    0.502001    0.605021     0.007504
AU3031   AU        0.255640    0.537226    0.569753     0.007504
AU3032   AU        0.291002    0.502799    0.573049     0.007504
AU3033   AU        0.292139    0.536045    0.605915     0.007504
AU3034   AU        0.325704    0.502238    0.605330     0.007504
AU3035   AU        0.327605    0.537222    0.571670     0.007504
AU3036   AU        0.362983    0.502667    0.569605     0.007504
AU3037   AU        0.362284    0.537264    0.604516     0.007504
AU3038   AU        0.396891    0.501695    0.604180     0.007504
AU3039   AU        0.397576    0.539500    0.569631     0.007504
AU3040   AU        0.435426    0.502440    0.570908     0.007504
AU3041   AU        0.435087    0.536121    0.603803     0.007504
AU3042   AU        0.469920    0.502018    0.604850     0.007504
AU3043   AU        0.469699    0.537954    0.570703     0.007504
AU3044   AU        0.504470    0.502911    0.569034     0.007504
AU3045   AU        0.507234    0.535537    0.601730     0.007504
AU3046   AU        0.542368    0.503052    0.604135     0.007504
AU3047   AU        0.544055    0.536561    0.571806     0.007504
AU3048   AU        0.577802    0.504011    0.571192     0.007504
AU3049   AU        0.579329    0.535725    0.604504     0.007504
AU3050   AU        0.615374    0.502655    0.604021     0.007504
AU3051   AU        0.617054    0.535902    0.570665     0.007504
AU3052   AU        0.650986    0.503178    0.569620     0.007504
AU3053   AU        0.650186    0.535598    0.604899     0.007504
AU3054   AU        0.688519    0.502428    0.603798     0.007504
AU3055   AU        0.685858    0.536200    0.569999     0.007504
AU3056   AU        0.723115    0.503373    0.568585     0.007504
PD3057   PD        0.723642    0.537299    0.600829     0.005394
AU3058   AU        0.757385    0.502525    0.602732     0.007504
AU3059   AU        0.757229    0.534920    0.569410     0.007504
AU3060   AU        0.791006    0.502360    0.567904     0.007504
PD3061   PD        0.792011    0.535866    0.601571     0.005394
PD3062   PD        0.827271    0.500950    0.602087     0.005394
PD3063   PD        0.825021    0.534365    0.569296     0.005394
PD3064   PD        0.078538    0.566395    0.571784     0.005394
PD3065   PD        0.077574    0.605353    0.607809     0.005394
PD3066   PD        0.114589    0.571669    0.602078     0.005394
PD3067   PD        0.114441    0.598375    0.571688     0.005394
PD3068   PD        0.149832    0.568405    0.571821     0.005394
PD3069   PD        0.151562    0.603574    0.604367     0.005394
PD3070   PD        0.186266    0.567759    0.601498     0.005394
PD3071   PD        0.183209    0.601902    0.572545     0.005394
AU3072   AU        0.221185    0.568187    0.571614     0.007504
AU3073   AU        0.222754    0.603449    0.604148     0.007504
AU3074   AU        0.257704    0.569351    0.605150     0.007504
AU3075   AU        0.258064    0.600666    0.570388     0.007504
AU3076   AU        0.291371    0.568552    0.570001     0.007504
AU3077   AU        0.291803    0.603549    0.604622     0.007504
AU3078   AU        0.329120    0.571988    0.604916     0.007504
AU3079   AU        0.328137    0.604570    0.571383     0.007504
AU3080   AU        0.362406    0.570432    0.570010     0.007504
AU3081   AU        0.364195    0.605220    0.604081     0.007504
AU3082   AU        0.400798    0.570394    0.602572     0.007504
AU3083   AU        0.398863    0.603427    0.569882     0.007504
AU3084   AU        0.434089    0.570971    0.569779     0.007504
AU3085   AU        0.434088    0.601686    0.604692     0.007504
AU3086   AU        0.472035    0.569187    0.603518     0.007504
AU3087   AU        0.471885    0.602302    0.570334     0.007504
AU3088   AU        0.505610    0.568694    0.569565     0.007504
AU3089   AU        0.507437    0.603541    0.602835     0.007504
AU3090   AU        0.543924    0.571224    0.604904     0.007504
AU3091   AU        0.544143    0.605442    0.570443     0.007504
AU3092   AU        0.580126    0.569153    0.569994     0.007504
AU3093   AU        0.578791    0.602800    0.606898     0.007504
AU3094   AU        0.615775    0.570257    0.604487     0.007504
AU3095   AU        0.615939    0.603124    0.569941     0.007504
AU3096   AU        0.652178    0.570863    0.569800     0.007504
PD3097   PD        0.649947    0.602893    0.604408     0.005394
PD3098   PD        0.687142    0.569370    0.604195     0.005394
PD3099   PD        0.688503    0.603911    0.570144     0.005394
PD3100   PD        0.722957    0.567580    0.569229     0.005394
PD3101   PD        0.722393    0.605031    0.601117     0.005394
PD3102   PD        0.758824    0.570293    0.603851     0.005394
PD3103   PD        0.754261    0.602176    0.570436     0.005394
PD3104   PD        0.790058    0.570897    0.570100     0.005394
PD3105   PD        0.826110    0.637263    0.535856     0.005394
PD3106   PD        0.117576    0.636867    0.600285     0.005394
PD3107   PD        0.110032    0.737058    0.568482     0.005394
PD3108   PD        0.147402    0.635286    0.570750     0.005394
PD3109   PD        0.148699    0.670130    0.600851     0.005394
PD3110   PD        0.184186    0.638890    0.603703     0.005394
AU3111   AU        0.186404    0.667080    0.569375     0.007504
PD3112   PD        0.220646    0.636937    0.569569     0.005394
AU3113   AU        0.222807    0.668352    0.602152     0.007504
PD3114   PD        0.255943    0.637175    0.600713     0.005394
AU3115   AU        0.256120    0.670881    0.569231     0.007504
AU3116   AU        0.292645    0.636039    0.570485     0.007504
AU3117   AU        0.291571    0.669615    0.602628     0.007504
AU3118   AU        0.329542    0.635878    0.604772     0.007504
AU3119   AU        0.326170    0.668536    0.572159     0.007504
AU3120   AU        0.363122    0.635138    0.571521     0.007504
AU3121   AU        0.365016    0.667849    0.603287     0.007504
AU3122   AU        0.400925    0.636641    0.604836     0.007504
AU3123   AU        0.399673    0.668485    0.570235     0.007504
PD3124   PD        0.434668    0.636545    0.571484     0.005394
AU3125   AU        0.434603    0.671099    0.603946     0.007504
AU3126   AU        0.469722    0.636014    0.603847     0.007504
AU3127   AU        0.471351    0.669694    0.570151     0.007504
AU3128   AU        0.506962    0.633984    0.570116     0.007504
AU3129   AU        0.505286    0.668191    0.603471     0.007504
PD3130   PD        0.545778    0.634646    0.606260     0.005394
PD3131   PD        0.545234    0.669158    0.570969     0.005394
AU3132   AU        0.580787    0.635710    0.570703     0.007504
PD3133   PD        0.579791    0.667486    0.603962     0.005394
PD3134   PD        0.613170    0.635642    0.606199     0.005394
AU3135   AU        0.614102    0.669283    0.570682     0.007504
AU3136   AU        0.650807    0.636390    0.572071     0.007504
AU3137   AU        0.649870    0.669167    0.603834     0.007504
AU3138   AU        0.685937    0.637919    0.604675     0.007504
AU3139   AU        0.685433    0.669710    0.569110     0.007504
AU3140   AU        0.719142    0.637602    0.569890     0.007504
PD3141   PD        0.722047    0.672698    0.602100     0.005394
PD3142   PD        0.753326    0.638953    0.602574     0.005394
PD3143   PD        0.759380    0.671702    0.564655     0.005394
PD3144   PD        0.147532    0.705785    0.565257     0.005394
PD3145   PD        0.185942    0.699582    0.599353     0.005394
PD3146   PD        0.187986    0.733709    0.569040     0.005394
AU3147   AU        0.220886    0.701995    0.570695     0.007504
PD3148   PD        0.221936    0.732271    0.603769     0.005394
AU3149   AU        0.257040    0.702342    0.601494     0.007504
AU3150   AU        0.257301    0.734977    0.571212     0.007504
PD3151   PD        0.293311    0.702503    0.572087     0.005394
PD3152   PD        0.290267    0.733258    0.601625     0.005394
AU3153   AU        0.328946    0.701055    0.605390     0.007504
PD3154   PD        0.327621    0.735006    0.570554     0.005394
AU3155   AU        0.365303    0.701065    0.570112     0.007504
PD3156   PD        0.363498    0.735614    0.604426     0.005394
PD3157   PD        0.398548    0.702088    0.603266     0.005394
PD3158   PD        0.399740    0.734156    0.569251     0.005394
AU3159   AU        0.434728    0.701650    0.569383     0.007504
AU3160   AU        0.433483    0.731999    0.600765     0.007504
AU3161   AU        0.472168    0.701274    0.601465     0.007504
AU3162   AU        0.472586    0.734589    0.568976     0.007504
AU3163   AU        0.506708    0.702646    0.570081     0.007504
AU3164   AU        0.506610    0.733064    0.604181     0.007504
PD3165   PD        0.538737    0.702411    0.603502     0.005394
PD3166   PD        0.542117    0.736346    0.570953     0.005394
AU3167   AU        0.578808    0.701595    0.570215     0.007504
PD3168   PD        0.576747    0.735080    0.602902     0.005394
PD3169   PD        0.614647    0.703625    0.604012     0.005394
AU3170   AU        0.614172    0.734449    0.568883     0.007504
AU3171   AU        0.649393    0.700579    0.570550     0.007504
PD3172   PD        0.648849    0.736854    0.599009     0.005394
PD3173   PD        0.685055    0.701466    0.603549     0.005394
PD3174   PD        0.687404    0.770339    0.536918     0.005394
PD3175   PD        0.719225    0.704423    0.570558     0.005394
PD3176   PD        0.255818    0.765557    0.605993     0.005394
PD3177   PD        0.294552    0.766778    0.573293     0.005394
PD3178   PD        0.326412    0.766014    0.601833     0.005394
PD3179   PD        0.329568    0.867355    0.502177     0.005394
PD3180   PD        0.365187    0.767708    0.567914     0.005394
PD3181   PD        0.361363    0.801538    0.602890     0.005394
AU3182   AU        0.400682    0.765793    0.601663     0.007504
PD3183   PD        0.400077    0.799518    0.570829     0.005394
AU3184   AU        0.433465    0.766104    0.568681     0.007504
PD3185   PD        0.434353    0.798022    0.601077     0.005394
PD3186   PD        0.469822    0.768195    0.604895     0.005394
PD3187   PD        0.468046    0.799617    0.572638     0.005394
PD3188   PD        0.506089    0.768438    0.570647     0.005394
PD3189   PD        0.513253    0.803771    0.605797     0.005394
PD3190   PD        0.539747    0.764718    0.602189     0.005394
PD3191   PD        0.543053    0.800252    0.570228     0.005394
PD3192   PD        0.580600    0.767401    0.571026     0.005394
PD3193   PD        0.612018    0.799713    0.565624     0.005394
PD3194   PD        0.205539    0.115205    0.658204     0.005394
PD3195   PD        0.292705    0.140024    0.670554     0.005394
PD3196   PD        0.325155    0.138194    0.636885     0.005394
PD3197   PD        0.365737    0.102942    0.634970     0.005394
PD3198   PD        0.365617    0.136723    0.667926     0.005394
PD3199   PD        0.404353    0.103733    0.667662     0.005394
PD3200   PD        0.401272    0.137473    0.636260     0.005394
AU3201   AU        0.436159    0.103048    0.634845     0.007504
PD3202   PD        0.435954    0.137191    0.667652     0.005394
PD3203   PD        0.471163    0.099820    0.664684     0.005394
PD3204   PD        0.472543    0.136961    0.638778     0.005394
PD3205   PD        0.506444    0.101623    0.631369     0.005394
PD3206   PD        0.502067    0.134479    0.667673     0.005394
PD3207   PD        0.542022    0.137276    0.635803     0.005394
PD3208   PD        0.582157    0.139380    0.671122     0.005394
PD3209   PD        0.614545    0.138980    0.638193     0.005394
PD3210   PD        0.183919    0.204057    0.635791     0.005394
PD3211   PD        0.220366    0.169674    0.637608     0.005394
PD3212   PD        0.218748    0.203266    0.671600     0.005394
PD3213   PD        0.253480    0.172791    0.672038     0.005394
AU3214   AU        0.254471    0.202603    0.637717     0.007504
PD3215   PD        0.289116    0.171608    0.638924     0.005394
AU3216   AU        0.291553    0.203720    0.669963     0.007504
PD3217   PD        0.325101    0.168714    0.669646     0.005394
AU3218   AU        0.326229    0.201213    0.638441     0.007504
PD3219   PD        0.363545    0.171323    0.638968     0.005394
AU3220   AU        0.362786    0.202290    0.669843     0.007504
PD3221   PD        0.398935    0.170665    0.668702     0.005394
PD3222   PD        0.398700    0.202571    0.635421     0.005394
AU3223   AU        0.436430    0.169082    0.634104     0.007504
AU3224   AU        0.434410    0.201186    0.669242     0.007504
PD3225   PD        0.470141    0.170000    0.669223     0.005394
PD3226   PD        0.471950    0.203017    0.636805     0.005394
PD3227   PD        0.507514    0.167571    0.637793     0.005394
PD3228   PD        0.505614    0.200439    0.669659     0.005394
PD3229   PD        0.543140    0.168511    0.670091     0.005394
AU3230   AU        0.543161    0.202548    0.636149     0.007504
AU3231   AU        0.579210    0.170509    0.635888     0.007504
PD3232   PD        0.576784    0.200620    0.669659     0.005394
PD3233   PD        0.613467    0.171941    0.668746     0.005394
AU3234   AU        0.615698    0.203246    0.636967     0.007504
PD3235   PD        0.652843    0.168754    0.635348     0.005394
PD3236   PD        0.651702    0.203964    0.670565     0.005394
PD3237   PD        0.685895    0.202491    0.635232     0.005394
PD3238   PD        0.111125    0.264800    0.636502     0.005394
PD3239   PD        0.147417    0.234925    0.636949     0.005394
PD3240   PD        0.148997    0.237115    0.708369     0.005394
PD3241   PD        0.186191    0.233889    0.667757     0.005394
PD3242   PD        0.184618    0.267677    0.636884     0.005394
AU3243   AU        0.219096    0.235683    0.634387     0.007504
PD3244   PD        0.222175    0.268811    0.671386     0.005394
PD3245   PD        0.254204    0.235049    0.672946     0.005394
AU3246   AU        0.255105    0.267384    0.639162     0.007504
PD3247   PD        0.290917    0.238186    0.638063     0.005394
AU3248   AU        0.291021    0.269344    0.670450     0.007504
AU3249   AU        0.327404    0.236123    0.669159     0.007504
AU3250   AU        0.327130    0.270271    0.638372     0.007504
AU3251   AU        0.363654    0.234133    0.639390     0.007504
AU3252   AU        0.366365    0.268594    0.669794     0.007504
PD3253   PD        0.399424    0.234371    0.668028     0.005394
AU3254   AU        0.400541    0.267450    0.635585     0.007504
AU3255   AU        0.434178    0.233294    0.635612     0.007504
AU3256   AU        0.433770    0.266148    0.672207     0.007504
AU3257   AU        0.471681    0.233075    0.669045     0.007504
AU3258   AU        0.468999    0.267928    0.638248     0.007504
AU3259   AU        0.508982    0.234391    0.637231     0.007504
AU3260   AU        0.506771    0.266792    0.671354     0.007504
PD3261   PD        0.541406    0.234175    0.669395     0.005394
PD3262   PD        0.542307    0.269170    0.637048     0.005394
PD3263   PD        0.582555    0.237225    0.637187     0.005394
PD3264   PD        0.580125    0.269771    0.670361     0.005394
PD3265   PD        0.616145    0.235652    0.671263     0.005394
PD3266   PD        0.615765    0.269121    0.635994     0.005394
PD3267   PD        0.652380    0.236687    0.636148     0.005394
AU3268   AU        0.651085    0.267309    0.669690     0.007504
AU3269   AU        0.687430    0.235327    0.667457     0.007504
PD3270   PD        0.686239    0.268230    0.634929     0.005394
PD3271   PD        0.719083    0.235735    0.635226     0.005394
PD3272   PD        0.720607    0.266863    0.668506     0.005394
PD3273   PD        0.755846    0.267990    0.630146     0.005394
PD3274   PD        0.114644    0.301417    0.667024     0.005394
PD3275   PD        0.113000    0.335913    0.635317     0.005394
PD3276   PD        0.147305    0.299234    0.631929     0.005394
PD3277   PD        0.145653    0.334310    0.671743     0.005394
PD3278   PD        0.186618    0.302923    0.674041     0.005394
PD3279   PD        0.183016    0.334231    0.638329     0.005394
PD3280   PD        0.216720    0.299442    0.637833     0.005394
PD3281   PD        0.221387    0.337475    0.671370     0.005394
AU3282   AU        0.255754    0.302627    0.670106     0.007504
AU3283   AU        0.255941    0.336577    0.638150     0.007504
AU3284   AU        0.291541    0.301983    0.639487     0.007504
PD3285   PD        0.291291    0.336522    0.671300     0.005394
AU3286   AU        0.328283    0.303404    0.671070     0.007504
AU3287   AU        0.325577    0.334567    0.635708     0.007504
AU3288   AU        0.362361    0.300947    0.635900     0.007504
PD3289   PD        0.362911    0.333959    0.670561     0.005394
AU3290   AU        0.400147    0.300412    0.670082     0.007504
AU3291   AU        0.397930    0.335836    0.638599     0.007504
AU3292   AU        0.434285    0.301509    0.638887     0.007504
AU3293   AU        0.434257    0.336358    0.669630     0.007504
PD3294   PD        0.470532    0.300276    0.668448     0.005394
AU3295   AU        0.471691    0.335224    0.637372     0.007504
PD3296   PD        0.508058    0.303408    0.639294     0.005394
AU3297   AU        0.506241    0.335630    0.670832     0.007504
PD3298   PD        0.545223    0.302026    0.670123     0.005394
AU3299   AU        0.544451    0.337382    0.635853     0.007504
AU3300   AU        0.580303    0.303526    0.636880     0.007504
AU3301   AU        0.579480    0.337297    0.668448     0.007504
PD3302   PD        0.616930    0.301284    0.668654     0.005394
AU3303   AU        0.616559    0.336261    0.637229     0.007504
PD3304   PD        0.649480    0.301271    0.636741     0.005394
AU3305   AU        0.652060    0.335848    0.669511     0.007504
AU3306   AU        0.684744    0.300159    0.668591     0.007504
AU3307   AU        0.686086    0.333817    0.635506     0.007504
AU3308   AU        0.721793    0.301562    0.635103     0.007504
AU3309   AU        0.721497    0.335251    0.668207     0.007504
PD3310   PD        0.756574    0.300584    0.670703     0.005394
PD3311   PD        0.756373    0.333459    0.635384     0.005394
PD3312   PD        0.075363    0.367706    0.636791     0.005394
PD3313   PD        0.079816    0.404574    0.672178     0.005394
PD3314   PD        0.114764    0.369187    0.671092     0.005394
PD3315   PD        0.114595    0.402391    0.637560     0.005394
PD3316   PD        0.147022    0.369131    0.640180     0.005394
AU3317   AU        0.150054    0.403029    0.671549     0.007504
PD3318   PD        0.183465    0.369949    0.672241     0.005394
AU3319   AU        0.184377    0.400081    0.636137     0.007504
AU3320   AU        0.219734    0.370730    0.638281     0.007504
AU3321   AU        0.218207    0.401737    0.672202     0.007504
AU3322   AU        0.256556    0.370489    0.670806     0.007504
AU3323   AU        0.255043    0.402062    0.639033     0.007504
AU3324   AU        0.290950    0.368671    0.636765     0.007504
AU3325   AU        0.290173    0.402527    0.671069     0.007504
AU3326   AU        0.324595    0.368112    0.669521     0.007504
AU3327   AU        0.326976    0.402396    0.638378     0.007504
AU3328   AU        0.362592    0.371374    0.639858     0.007504
AU3329   AU        0.364126    0.403504    0.671201     0.007504
AU3330   AU        0.400382    0.370436    0.670800     0.007504
AU3331   AU        0.398436    0.401999    0.637733     0.007504
AU3332   AU        0.432571    0.368755    0.635903     0.007504
AU3333   AU        0.433567    0.404205    0.669995     0.007504
AU3334   AU        0.471257    0.368358    0.670806     0.007504
AU3335   AU        0.469793    0.401859    0.639204     0.007504
AU3336   AU        0.506944    0.368270    0.638689     0.007504
AU3337   AU        0.507178    0.400917    0.672679     0.007504
AU3338   AU        0.543125    0.370038    0.671687     0.007504
AU3339   AU        0.544118    0.401751    0.639472     0.007504
AU3340   AU        0.580854    0.369601    0.637519     0.007504
AU3341   AU        0.578288    0.402722    0.670785     0.007504
AU3342   AU        0.616155    0.369776    0.669475     0.007504
AU3343   AU        0.614657    0.402624    0.639004     0.007504
AU3344   AU        0.651121    0.367631    0.637428     0.007504
AU3345   AU        0.651480    0.402871    0.670213     0.007504
PD3346   PD        0.689555    0.368029    0.667851     0.005394
AU3347   AU        0.686481    0.405238    0.635717     0.007504
PD3348   PD        0.721757    0.369332    0.635571     0.005394
PD3349   PD        0.722145    0.405195    0.666897     0.005394
PD3350   PD        0.758175    0.369883    0.668350     0.005394
PD3351   PD        0.757845    0.402708    0.633498     0.005394
PD3352   PD        0.793146    0.371677    0.630926     0.005394
PD3353   PD        0.828991    0.373141    0.680059     0.005394
PD3354   PD        0.078678    0.431343    0.634659     0.005394
PD3355   PD        0.084168    0.467342    0.668627     0.005394
PD3356   PD        0.114591    0.433694    0.670725     0.005394
PD3357   PD        0.115289    0.467392    0.636746     0.005394
PD3358   PD        0.150241    0.432516    0.638479     0.005394
PD3359   PD        0.151200    0.468339    0.673353     0.005394
AU3360   AU        0.183781    0.435617    0.670937     0.007504
AU3361   AU        0.184983    0.466838    0.638694     0.007504
AU3362   AU        0.218986    0.434206    0.638237     0.007504
AU3363   AU        0.219742    0.467634    0.671409     0.007504
AU3364   AU        0.253192    0.435684    0.670359     0.007504
AU3365   AU        0.254836    0.467979    0.637193     0.007504
AU3366   AU        0.291420    0.434950    0.639162     0.007504
AU3367   AU        0.292512    0.468565    0.672472     0.007504
AU3368   AU        0.326824    0.435256    0.671936     0.007504
AU3369   AU        0.328736    0.468350    0.637203     0.007504
AU3370   AU        0.363879    0.436288    0.638940     0.007504
AU3371   AU        0.361754    0.469793    0.671631     0.007504
AU3372   AU        0.398527    0.436009    0.671076     0.007504
AU3373   AU        0.397766    0.469212    0.638160     0.007504
AU3374   AU        0.437819    0.435671    0.639125     0.007504
AU3375   AU        0.437285    0.469035    0.671767     0.007504
AU3376   AU        0.472915    0.433491    0.671355     0.007504
AU3377   AU        0.475078    0.469915    0.637529     0.007504
AU3378   AU        0.509457    0.436201    0.638247     0.007504
AU3379   AU        0.507890    0.467897    0.670422     0.007504
PD3380   PD        0.543375    0.435375    0.670980     0.005394
AU3381   AU        0.542539    0.468792    0.636708     0.007504
AU3382   AU        0.579037    0.436447    0.636984     0.007504
AU3383   AU        0.577401    0.468340    0.670498     0.007504
AU3384   AU        0.615637    0.436585    0.668704     0.007504
PD3385   PD        0.616864    0.472239    0.636119     0.005394
AU3386   AU        0.649202    0.436436    0.635617     0.007504
AU3387   AU        0.651405    0.470891    0.669299     0.007504
AU3388   AU        0.685312    0.435975    0.668728     0.007504
AU3389   AU        0.684724    0.470222    0.635385     0.007504
AU3390   AU        0.720973    0.437492    0.636398     0.007504
AU3391   AU        0.718707    0.469546    0.667501     0.007504
PD3392   PD        0.758112    0.434396    0.668676     0.005394
AU3393   AU        0.756307    0.470019    0.637478     0.007504
PD3394   PD        0.792255    0.438778    0.635105     0.005394
PD3395   PD        0.791951    0.466937    0.669622     0.005394
PD3396   PD        0.078387    0.499525    0.635325     0.005394
PD3397   PD        0.116009    0.502821    0.672408     0.005394
PD3398   PD        0.116910    0.539505    0.639204     0.005394
PD3399   PD        0.147637    0.499902    0.639353     0.005394
PD3400   PD        0.151363    0.535273    0.670033     0.005394
AU3401   AU        0.183941    0.501948    0.668235     0.007504
AU3402   AU        0.185384    0.534151    0.637293     0.007504
AU3403   AU        0.221142    0.500307    0.639702     0.007504
AU3404   AU        0.220410    0.535168    0.670516     0.007504
PD3405   PD        0.254854    0.500692    0.670245     0.005394
AU3406   AU        0.256553    0.536227    0.640229     0.007504
AU3407   AU        0.292284    0.502341    0.639132     0.007504
AU3408   AU        0.291332    0.536221    0.671214     0.007504
AU3409   AU        0.327219    0.504178    0.670971     0.007504
AU3410   AU        0.328198    0.537959    0.639173     0.007504
AU3411   AU        0.361133    0.502197    0.637890     0.007504
AU3412   AU        0.363096    0.538065    0.672935     0.007504
AU3413   AU        0.395406    0.502938    0.670029     0.007504
AU3414   AU        0.396997    0.537050    0.638336     0.007504
AU3415   AU        0.433056    0.502674    0.636881     0.007504
AU3416   AU        0.437418    0.535484    0.669855     0.007504
AU3417   AU        0.471869    0.503571    0.670859     0.007504
AU3418   AU        0.472013    0.536029    0.637231     0.007504
AU3419   AU        0.509621    0.502309    0.638185     0.007504
PD3420   PD        0.506477    0.536088    0.669937     0.005394
AU3421   AU        0.546023    0.502098    0.670265     0.007504
PD3422   PD        0.543418    0.537353    0.638316     0.005394
AU3423   AU        0.579794    0.505189    0.637059     0.007504
PD3424   PD        0.578908    0.535089    0.671766     0.005394
AU3425   AU        0.614927    0.503268    0.670357     0.007504
AU3426   AU        0.614953    0.537553    0.637569     0.007504
AU3427   AU        0.651245    0.503122    0.637182     0.007504
AU3428   AU        0.649377    0.536995    0.671031     0.007504
PD3429   PD        0.685083    0.503129    0.668993     0.005394
AU3430   AU        0.684746    0.536013    0.635999     0.007504
AU3431   AU        0.722444    0.503865    0.637469     0.007504
PD3432   PD        0.720242    0.538143    0.669754     0.005394
PD3433   PD        0.755899    0.501360    0.668762     0.005394
PD3434   PD        0.758177    0.536664    0.638264     0.005394
PD3435   PD        0.793343    0.501067    0.635710     0.005394
PD3436   PD        0.076977    0.567268    0.703948     0.005394
PD3437   PD        0.115465    0.604905    0.635409     0.005394
PD3438   PD        0.147280    0.564770    0.635155     0.005394
PD3439   PD        0.151534    0.601154    0.665609     0.005394
AU3440   AU        0.187575    0.568097    0.669547     0.007504
AU3441   AU        0.185936    0.603798    0.634739     0.007504
AU3442   AU        0.218824    0.569295    0.636433     0.007504
AU3443   AU        0.219938    0.601856    0.669241     0.007504
AU3444   AU        0.257166    0.569440    0.671724     0.007504
AU3445   AU        0.254521    0.601286    0.640107     0.007504
AU3446   AU        0.290509    0.570378    0.637464     0.007504
AU3447   AU        0.290710    0.603227    0.669083     0.007504
AU3448   AU        0.326542    0.570319    0.671295     0.007504
AU3449   AU        0.327688    0.602189    0.637984     0.007504
AU3450   AU        0.364303    0.571500    0.637624     0.007504
AU3451   AU        0.362838    0.603562    0.671257     0.007504
AU3452   AU        0.397884    0.569971    0.670468     0.007504
AU3453   AU        0.399624    0.603201    0.639041     0.007504
AU3454   AU        0.435177    0.568121    0.638690     0.007504
AU3455   AU        0.433300    0.600709    0.671272     0.007504
AU3456   AU        0.471014    0.567676    0.671931     0.007504
AU3457   AU        0.469138    0.603794    0.638239     0.007504
AU3458   AU        0.505610    0.570946    0.637399     0.007504
AU3459   AU        0.506625    0.602739    0.671315     0.007504
AU3460   AU        0.542737    0.570462    0.671021     0.007504
PD3461   PD        0.543969    0.604642    0.637647     0.005394
AU3462   AU        0.580845    0.569393    0.637753     0.007504
AU3463   AU        0.580323    0.602318    0.672650     0.007504
AU3464   AU        0.616971    0.569693    0.670819     0.007504
AU3465   AU        0.615334    0.601516    0.637937     0.007504
AU3466   AU        0.650695    0.569303    0.636635     0.007504
AU3467   AU        0.650413    0.602498    0.670811     0.007504
AU3468   AU        0.684401    0.569633    0.668325     0.007504
AU3469   AU        0.686056    0.602077    0.634831     0.007504
PD3470   PD        0.722724    0.567226    0.637262     0.005394
PD3471   PD        0.720301    0.601001    0.667712     0.005394
PD3472   PD        0.792605    0.531781    0.667710     0.005394
PD3473   PD        0.791748    0.609060    0.668696     0.005394
PD3474   PD        0.152911    0.636493    0.637251     0.005394
AU3475   AU        0.186784    0.635147    0.668779     0.007504
PD3476   PD        0.186970    0.672015    0.634595     0.005394
PD3477   PD        0.221091    0.635028    0.637306     0.005394
PD3478   PD        0.224006    0.669457    0.667899     0.005394
PD3479   PD        0.255627    0.635026    0.668204     0.005394
AU3480   AU        0.257128    0.668506    0.636589     0.007504
PD3481   PD        0.291716    0.636321    0.636189     0.005394
PD3482   PD        0.290925    0.669884    0.670650     0.005394
AU3483   AU        0.328026    0.634319    0.669556     0.007504
PD3484   PD        0.328000    0.667429    0.636593     0.005394
AU3485   AU        0.365336    0.637153    0.638002     0.007504
AU3486   AU        0.365824    0.669942    0.669306     0.007504
PD3487   PD        0.397631    0.634079    0.669778     0.005394
AU3488   AU        0.400247    0.669927    0.637174     0.007504
AU3489   AU        0.435043    0.637089    0.637534     0.007504
PD3490   PD        0.433556    0.667809    0.669980     0.005394
AU3491   AU        0.472492    0.635405    0.671228     0.007504
PD3492   PD        0.473339    0.667461    0.636013     0.005394
AU3493   AU        0.506682    0.635438    0.636064     0.007504
PD3494   PD        0.507807    0.667629    0.671190     0.005394
AU3495   AU        0.542480    0.635222    0.670654     0.007504
PD3496   PD        0.546499    0.667618    0.638260     0.005394
AU3497   AU        0.579764    0.634796    0.640028     0.007504
PD3498   PD        0.580247    0.666088    0.670605     0.005394
AU3499   AU        0.614803    0.635130    0.670699     0.007504
AU3500   AU        0.613008    0.667233    0.638253     0.007504
AU3501   AU        0.650434    0.634346    0.635604     0.007504
PD3502   PD        0.650480    0.668626    0.672212     0.005394
PD3503   PD        0.683868    0.634299    0.669204     0.005394
PD3504   PD        0.684676    0.669495    0.635097     0.005394
PD3505   PD        0.720884    0.634966    0.635509     0.005394
PD3506   PD        0.220978    0.703392    0.632159     0.005394
PD3507   PD        0.259536    0.700812    0.669936     0.005394
PD3508   PD        0.256248    0.735837    0.634267     0.005394
PD3509   PD        0.291646    0.700873    0.637360     0.005394
PD3510   PD        0.200956    0.756309    0.724188     0.005394
PD3511   PD        0.330332    0.702724    0.668768     0.005394
PD3512   PD        0.328688    0.735056    0.634340     0.005394
AU3513   AU        0.365646    0.701323    0.635396     0.007504
PD3514   PD        0.365865    0.733165    0.668135     0.005394
AU3515   AU        0.400589    0.701323    0.671187     0.007504
PD3516   PD        0.401670    0.733459    0.637706     0.005394
PD3517   PD        0.437966    0.701410    0.634857     0.005394
PD3518   PD        0.435488    0.732133    0.668027     0.005394
PD3519   PD        0.469435    0.700608    0.667619     0.005394
PD3520   PD        0.468755    0.734953    0.633916     0.005394
AU3521   AU        0.509052    0.701337    0.637008     0.007504
PD3522   PD        0.506500    0.733292    0.668668     0.005394
PD3523   PD        0.543591    0.702200    0.670372     0.005394
PD3524   PD        0.543469    0.733176    0.635538     0.005394
AU3525   AU        0.579947    0.700112    0.636137     0.007504
PD3526   PD        0.548150    0.767777    0.668164     0.005394
PD3527   PD        0.615688    0.700963    0.671442     0.005394
PD3528   PD        0.614079    0.733198    0.637736     0.005394
PD3529   PD        0.647527    0.701982    0.635813     0.005394
PD3530   PD        0.365360    0.767251    0.636271     0.005394
PD3531   PD        0.402252    0.764600    0.670445     0.005394
PD3532   PD        0.436090    0.767184    0.635666     0.005394
PD3533   PD        0.436672    0.798448    0.669154     0.005394
PD3534   PD        0.507182    0.764413    0.638522     0.005394
PD3535   PD        0.401778    0.134583    0.699772     0.005394
PD3536   PD        0.470940    0.133619    0.701641     0.005394
PD3537   PD        0.257995    0.207380    0.705954     0.005394
PD3538   PD        0.294247    0.173205    0.702550     0.005394
PD3539   PD        0.293744    0.205187    0.736357     0.005394
AU3540   AU        0.327822    0.205321    0.700275     0.007504
PD3541   PD        0.363074    0.173058    0.702931     0.005394
PD3542   PD        0.363329    0.201061    0.735720     0.005394
PD3543   PD        0.402431    0.169611    0.737177     0.005394
PD3544   PD        0.397933    0.202456    0.701649     0.005394
PD3545   PD        0.436891    0.170069    0.702625     0.005394
PD3546   PD        0.435690    0.201892    0.734391     0.005394
PD3547   PD        0.472940    0.167339    0.733098     0.005394
PD3548   PD        0.473088    0.202175    0.702734     0.005394
PD3549   PD        0.505124    0.166955    0.701408     0.005394
PD3550   PD        0.507713    0.201243    0.734410     0.005394
PD3551   PD        0.542286    0.201162    0.699237     0.005394
PD3552   PD        0.578956    0.170895    0.701811     0.005394
PD3553   PD        0.577967    0.202259    0.733497     0.005394
PD3554   PD        0.615758    0.205623    0.702076     0.005394
PD3555   PD        0.184902    0.268255    0.704901     0.005394
PD3556   PD        0.218238    0.235211    0.704301     0.005394
PD3557   PD        0.223458    0.265307    0.739535     0.005394
PD3558   PD        0.257878    0.235296    0.735655     0.005394
PD3559   PD        0.257683    0.269513    0.703677     0.005394
PD3560   PD        0.295154    0.236749    0.701149     0.005394
PD3561   PD        0.292498    0.267954    0.734433     0.005394
PD3562   PD        0.327217    0.237355    0.734055     0.005394
PD3563   PD        0.330572    0.269502    0.700014     0.005394
AU3564   AU        0.364374    0.235647    0.702891     0.007504
AU3565   AU        0.361740    0.269760    0.736512     0.007504
PD3566   PD        0.396353    0.235990    0.735660     0.005394
PD3567   PD        0.399051    0.268618    0.703530     0.005394
PD3568   PD        0.433714    0.233726    0.704752     0.005394
AU3569   AU        0.435131    0.269635    0.737390     0.007504
PD3570   PD        0.468568    0.234757    0.733863     0.005394
AU3571   AU        0.471476    0.268711    0.703837     0.007504
PD3572   PD        0.506779    0.234085    0.702645     0.005394
PD3573   PD        0.507942    0.268663    0.736104     0.005394
PD3574   PD        0.547035    0.236312    0.734863     0.005394
PD3575   PD        0.543508    0.267218    0.703314     0.005394
PD3576   PD        0.578412    0.235031    0.699326     0.005394
PD3577   PD        0.581347    0.267620    0.735741     0.005394
AU3578   AU        0.613128    0.236210    0.735852     0.007504
PD3579   PD        0.615592    0.269021    0.704523     0.005394
PD3580   PD        0.650951    0.235217    0.699080     0.005394
PD3581   PD        0.652826    0.268048    0.732418     0.005394
PD3582   PD        0.688914    0.265280    0.702760     0.005394
PD3583   PD        0.117436    0.325892    0.709720     0.005394
PD3584   PD        0.182730    0.303975    0.735307     0.005394
PD3585   PD        0.187041    0.336949    0.702609     0.005394
PD3586   PD        0.221968    0.301011    0.706560     0.005394
PD3587   PD        0.218579    0.339456    0.737528     0.005394
PD3588   PD        0.256841    0.306571    0.737776     0.005394
PD3589   PD        0.254355    0.335937    0.704431     0.005394
AU3590   AU        0.292623    0.301055    0.704380     0.007504
PD3591   PD        0.291018    0.334573    0.739738     0.005394
AU3592   AU        0.329175    0.303284    0.738744     0.007504
AU3593   AU        0.326525    0.333869    0.706001     0.007504
AU3594   AU        0.362885    0.301027    0.703768     0.007504
PD3595   PD        0.363453    0.333697    0.736611     0.005394
AU3596   AU        0.397738    0.301630    0.734886     0.007504
PD3597   PD        0.398314    0.334067    0.703678     0.005394
PD3598   PD        0.435043    0.302094    0.701723     0.005394
PD3599   PD        0.434277    0.339218    0.735239     0.005394
PD3600   PD        0.471257    0.302397    0.736132     0.005394
PD3601   PD        0.470363    0.336129    0.700768     0.005394
AU3602   AU        0.508008    0.302191    0.703421     0.007504
PD3603   PD        0.510231    0.335421    0.734813     0.005394
AU3604   AU        0.545285    0.301251    0.736725     0.007504
PD3605   PD        0.542760    0.335882    0.701756     0.005394
AU3606   AU        0.579957    0.301961    0.703329     0.007504
AU3607   AU        0.578572    0.332543    0.737091     0.007504
PD3608   PD        0.614281    0.304084    0.734850     0.005394
PD3609   PD        0.611412    0.334567    0.701422     0.005394
PD3610   PD        0.649553    0.302673    0.702636     0.005394
PD3611   PD        0.650420    0.334861    0.733833     0.005394
PD3612   PD        0.686914    0.296250    0.735038     0.005394
PD3613   PD        0.686022    0.336546    0.700125     0.005394
PD3614   PD        0.757170    0.264668    0.699595     0.005394
PD3615   PD        0.111996    0.400850    0.703134     0.005394
PD3616   PD        0.149102    0.369469    0.706122     0.005394
PD3617   PD        0.149329    0.432775    0.770776     0.005394
PD3618   PD        0.187207    0.338967    0.773985     0.005394
PD3619   PD        0.184844    0.404025    0.705003     0.005394
AU3620   AU        0.221410    0.371627    0.704211     0.007504
PD3621   PD        0.222357    0.404074    0.734520     0.005394
PD3622   PD        0.257104    0.369212    0.737525     0.005394
AU3623   AU        0.257269    0.403366    0.704074     0.007504
AU3624   AU        0.288892    0.368979    0.703925     0.007504
AU3625   AU        0.291428    0.402260    0.736171     0.007504
PD3626   PD        0.326637    0.368922    0.736469     0.005394
AU3627   AU        0.325344    0.401470    0.703393     0.007504
PD3628   PD        0.363514    0.370299    0.702089     0.005394
AU3629   AU        0.361113    0.402992    0.736586     0.007504
AU3630   AU        0.397989    0.372056    0.736574     0.007504
AU3631   AU        0.399434    0.403415    0.704553     0.007504
AU3632   AU        0.434325    0.370737    0.701990     0.007504
PD3633   PD        0.434668    0.402161    0.738196     0.005394
AU3634   AU        0.471083    0.367272    0.734661     0.007504
AU3635   AU        0.471758    0.402995    0.702617     0.007504
AU3636   AU        0.508544    0.369305    0.703695     0.007504
PD3637   PD        0.505477    0.400119    0.737400     0.005394
AU3638   AU        0.543929    0.367135    0.735379     0.007504
AU3639   AU        0.544098    0.402323    0.704372     0.007504
AU3640   AU        0.579487    0.368603    0.701886     0.007504
PD3641   PD        0.577235    0.401149    0.736607     0.005394
PD3642   PD        0.612012    0.367005    0.735077     0.005394
AU3643   AU        0.613976    0.402355    0.703393     0.007504
PD3644   PD        0.653411    0.370818    0.702735     0.005394
PD3645   PD        0.649436    0.404577    0.735305     0.005394
PD3646   PD        0.690587    0.367840    0.736359     0.005394
PD3647   PD        0.687479    0.401059    0.701704     0.005394
PD3648   PD        0.722958    0.367291    0.701363     0.005394
PD3649   PD        0.759449    0.366367    0.735507     0.005394
PD3650   PD        0.754733    0.400696    0.703831     0.005394
PD3651   PD        0.116678    0.472201    0.705608     0.005394
PD3652   PD        0.148973    0.435357    0.705067     0.005394
PD3653   PD        0.149750    0.469360    0.738842     0.005394
PD3654   PD        0.182909    0.435595    0.736838     0.005394
AU3655   AU        0.184232    0.468122    0.704078     0.007504
AU3656   AU        0.221404    0.435357    0.704408     0.007504
PD3657   PD        0.223211    0.470006    0.734321     0.005394
AU3658   AU        0.257696    0.436125    0.736772     0.007504
PD3659   PD        0.258191    0.471233    0.704536     0.005394
AU3660   AU        0.291290    0.435090    0.704033     0.007504
AU3661   AU        0.291958    0.470768    0.736977     0.007504
AU3662   AU        0.325850    0.436800    0.734314     0.007504
AU3663   AU        0.325842    0.469909    0.703155     0.007504
AU3664   AU        0.361343    0.437424    0.702517     0.007504
AU3665   AU        0.362621    0.468883    0.736601     0.007504
AU3666   AU        0.396481    0.438003    0.737042     0.007504
AU3667   AU        0.398880    0.469596    0.702468     0.007504
PD3668   PD        0.435635    0.436180    0.702759     0.005394
PD3669   PD        0.435847    0.468510    0.734882     0.005394
AU3670   AU        0.470888    0.435216    0.737141     0.007504
AU3671   AU        0.474059    0.468133    0.704266     0.007504
AU3672   AU        0.510142    0.435014    0.703960     0.007504
AU3673   AU        0.506366    0.469968    0.736948     0.007504
AU3674   AU        0.542955    0.437499    0.736369     0.007504
AU3675   AU        0.543623    0.468758    0.705130     0.007504
AU3676   AU        0.577329    0.434642    0.703834     0.007504
AU3677   AU        0.577857    0.468640    0.736484     0.007504
AU3678   AU        0.613461    0.438195    0.734832     0.007504
AU3679   AU        0.615040    0.471307    0.702003     0.007504
PD3680   PD        0.649602    0.435166    0.703467     0.005394
PD3681   PD        0.649634    0.470760    0.733261     0.005394
PD3682   PD        0.684628    0.437003    0.735705     0.005394
PD3683   PD        0.686817    0.467788    0.699766     0.005394
AU3684   AU        0.722304    0.435540    0.700766     0.007504
PD3685   PD        0.719591    0.468758    0.732995     0.005394
PD3686   PD        0.756303    0.468298    0.699816     0.005394
PD3687   PD        0.153530    0.502531    0.702818     0.005394
PD3688   PD        0.183237    0.500861    0.735234     0.005394
PD3689   PD        0.186583    0.536374    0.700618     0.005394
PD3690   PD        0.219741    0.502390    0.701593     0.005394
PD3691   PD        0.223330    0.536690    0.735518     0.005394
PD3692   PD        0.256394    0.502483    0.735910     0.005394
AU3693   AU        0.256934    0.536375    0.703792     0.007504
AU3694   AU        0.292759    0.504844    0.703720     0.007504
AU3695   AU        0.292592    0.535512    0.737492     0.007504
AU3696   AU        0.327675    0.504268    0.736123     0.007504
AU3697   AU        0.327673    0.536688    0.704407     0.007504
AU3698   AU        0.362158    0.504609    0.703340     0.007504
AU3699   AU        0.363918    0.536009    0.735791     0.007504
PD3700   PD        0.398143    0.502830    0.733876     0.005394
AU3701   AU        0.399485    0.536256    0.703278     0.007504
PD3702   PD        0.437405    0.504038    0.703424     0.005394
PD3703   PD        0.435132    0.535609    0.734646     0.005394
AU3704   AU        0.472430    0.503800    0.735667     0.007504
AU3705   AU        0.472730    0.535394    0.703924     0.007504
AU3706   AU        0.508585    0.502739    0.703094     0.007504
AU3707   AU        0.507590    0.536285    0.734687     0.007504
AU3708   AU        0.543107    0.501830    0.736278     0.007504
AU3709   AU        0.543800    0.535478    0.704400     0.007504
AU3710   AU        0.577846    0.503549    0.704409     0.007504
PD3711   PD        0.577301    0.536705    0.736861     0.005394
AU3712   AU        0.614812    0.504096    0.736796     0.007504
PD3713   PD        0.612958    0.539439    0.703931     0.005394
PD3714   PD        0.649711    0.504041    0.702307     0.005394
PD3715   PD        0.652374    0.565272    0.765357     0.005394
PD3716   PD        0.684388    0.501117    0.732688     0.005394
PD3717   PD        0.688913    0.535285    0.701570     0.005394
PD3718   PD        0.723485    0.504064    0.701360     0.005394
PD3719   PD        0.113819    0.570395    0.736372     0.005394
PD3720   PD        0.185042    0.570391    0.734942     0.005394
PD3721   PD        0.182539    0.602353    0.701986     0.005394
AU3722   AU        0.221405    0.571148    0.705222     0.007504
PD3723   PD        0.221335    0.605996    0.733557     0.005394
PD3724   PD        0.258735    0.569628    0.735041     0.005394
AU3725   AU        0.256158    0.603112    0.703012     0.007504
AU3726   AU        0.290920    0.568045    0.702154     0.007504
PD3727   PD        0.291459    0.600009    0.732880     0.005394
AU3728   AU        0.328735    0.568073    0.737524     0.007504
PD3729   PD        0.326509    0.601171    0.702647     0.005394
AU3730   AU        0.362298    0.570569    0.703825     0.007504
PD3731   PD        0.365431    0.600306    0.738083     0.005394
AU3732   AU        0.397857    0.568570    0.736923     0.007504
AU3733   AU        0.398803    0.602003    0.705477     0.007504
AU3734   AU        0.435131    0.568479    0.702317     0.007504
PD3735   PD        0.435674    0.600359    0.734278     0.005394
AU3736   AU        0.472690    0.569560    0.734178     0.007504
AU3737   AU        0.471275    0.602910    0.702818     0.007504
AU3738   AU        0.507579    0.568859    0.703563     0.007504
AU3739   AU        0.506297    0.603448    0.734351     0.007504
AU3740   AU        0.542684    0.570610    0.734837     0.007504
AU3741   AU        0.542856    0.602797    0.703197     0.007504
AU3742   AU        0.580194    0.571193    0.704861     0.007504
AU3743   AU        0.577783    0.602171    0.735057     0.007504
PD3744   PD        0.614618    0.569392    0.735632     0.005394
AU3745   AU        0.615067    0.601576    0.703466     0.007504
PD3746   PD        0.650853    0.569015    0.704965     0.005394
PD3747   PD        0.648834    0.603739    0.735495     0.005394
PD3748   PD        0.687704    0.569289    0.735902     0.005394
PD3749   PD        0.685847    0.603105    0.703187     0.005394
PD3750   PD        0.721940    0.571400    0.701369     0.005394
AU3751   AU        0.220588    0.633923    0.700295     0.007504
PD3752   PD        0.213274    0.605716    0.800322     0.005394
PD3753   PD        0.253742    0.668540    0.703054     0.005394
PD3754   PD        0.290750    0.634924    0.702458     0.005394
PD3755   PD        0.295740    0.667714    0.734779     0.005394
PD3756   PD        0.329364    0.636251    0.735782     0.005394
PD3757   PD        0.332130    0.669132    0.701616     0.005394
AU3758   AU        0.361121    0.632688    0.704694     0.007504
AU3759   AU        0.364480    0.667076    0.734133     0.007504
AU3760   AU        0.398712    0.633879    0.736173     0.007504
AU3761   AU        0.398854    0.667223    0.702649     0.007504
AU3762   AU        0.433148    0.633636    0.704169     0.007504
PD3763   PD        0.433665    0.666219    0.734443     0.005394
PD3764   PD        0.471912    0.636331    0.734749     0.005394
PD3765   PD        0.471786    0.667977    0.704120     0.005394
AU3766   AU        0.508963    0.635938    0.702792     0.007504
PD3767   PD        0.505322    0.669144    0.734608     0.005394
AU3768   AU        0.542268    0.636790    0.734327     0.007504
AU3769   AU        0.543418    0.669977    0.702793     0.007504
AU3770   AU        0.578316    0.634673    0.701318     0.007504
PD3771   PD        0.579895    0.668130    0.733841     0.005394
PD3772   PD        0.612597    0.635599    0.733981     0.005394
PD3773   PD        0.615472    0.666667    0.701138     0.005394
PD3774   PD        0.650446    0.635138    0.700948     0.005394
PD3775   PD        0.291736    0.735915    0.665161     0.005394
PD3776   PD        0.364304    0.703600    0.701993     0.005394
PD3777   PD        0.398670    0.699546    0.735210     0.005394
PD3778   PD        0.401068    0.732832    0.704060     0.005394
PD3779   PD        0.434703    0.700689    0.702121     0.005394
PD3780   PD        0.470868    0.700209    0.736576     0.005394
PD3781   PD        0.471018    0.733837    0.701465     0.005394
PD3782   PD        0.506587    0.701984    0.702563     0.005394
PD3783   PD        0.578656    0.699665    0.703174     0.005394
PD3784   PD        0.401385    0.202065    0.767925     0.005394
PD3785   PD        0.501787    0.214961    0.800064     0.005394
PD3786   PD        0.257842    0.308226    0.805588     0.005394
AU3787   AU        0.327986    0.269345    0.768529     0.007504
PD3788   PD        0.365516    0.236633    0.772311     0.005394
PD3789   PD        0.362261    0.266772    0.799411     0.005394
AU3790   AU        0.399112    0.268422    0.768136     0.007504
PD3791   PD        0.430971    0.235985    0.767840     0.005394
PD3792   PD        0.432767    0.268665    0.799603     0.005394
PD3793   PD        0.468805    0.270195    0.769463     0.005394
PD3794   PD        0.550544    0.202533    0.768735     0.005394
PD3795   PD        0.508724    0.265853    0.799956     0.005394
PD3796   PD        0.542053    0.269959    0.768473     0.005394
PD3797   PD        0.620029    0.268572    0.768218     0.005394
PD3798   PD        0.256686    0.339134    0.770589     0.005394
PD3799   PD        0.294022    0.303535    0.769309     0.005394
PD3800   PD        0.295320    0.335135    0.805552     0.005394
PD3801   PD        0.330405    0.300220    0.799603     0.005394
PD3802   PD        0.329000    0.336413    0.771825     0.005394
AU3803   AU        0.366321    0.303638    0.770585     0.007504
PD3804   PD        0.365289    0.336590    0.801774     0.005394
PD3805   PD        0.401838    0.301239    0.799519     0.005394
PD3806   PD        0.399869    0.335015    0.768642     0.005394
PD3807   PD        0.432905    0.299856    0.768712     0.005394
AU3808   AU        0.435590    0.335237    0.800145     0.007504
PD3809   PD        0.473020    0.301046    0.800289     0.005394
PD3810   PD        0.468914    0.337268    0.766792     0.005394
PD3811   PD        0.507088    0.300983    0.766317     0.005394
PD3812   PD        0.506307    0.335365    0.798712     0.005394
PD3813   PD        0.542948    0.299812    0.865575     0.005394
PD3814   PD        0.542858    0.332467    0.768730     0.005394
AU3815   AU        0.577656    0.299008    0.771326     0.007504
PD3816   PD        0.579651    0.334876    0.799780     0.005394
PD3817   PD        0.616305    0.333980    0.769414     0.005394
PD3818   PD        0.189671    0.407571    0.773040     0.005394
PD3819   PD        0.219167    0.371529    0.767112     0.005394
PD3820   PD        0.256294    0.363995    0.804986     0.005394
AU3821   AU        0.255530    0.405115    0.767893     0.007504
PD3822   PD        0.294333    0.368917    0.767889     0.005394
PD3823   PD        0.293175    0.404195    0.800378     0.005394
PD3824   PD        0.326765    0.369089    0.800200     0.005394
PD3825   PD        0.327641    0.402963    0.767532     0.005394
PD3826   PD        0.361567    0.369343    0.768213     0.005394
PD3827   PD        0.362893    0.400922    0.800026     0.005394
AU3828   AU        0.399642    0.368614    0.798892     0.007504
AU3829   AU        0.397675    0.402432    0.769970     0.007504
PD3830   PD        0.435888    0.370175    0.768240     0.005394
PD3831   PD        0.436067    0.402297    0.800930     0.005394
PD3832   PD        0.470367    0.369034    0.803214     0.005394
PD3833   PD        0.471114    0.402825    0.769130     0.005394
PD3834   PD        0.506913    0.373136    0.767217     0.005394
PD3835   PD        0.504478    0.400510    0.804370     0.005394
PD3836   PD        0.542809    0.368869    0.798032     0.005394
PD3837   PD        0.543835    0.403070    0.767530     0.005394
PD3838   PD        0.576837    0.368980    0.767889     0.005394
AU3839   AU        0.576624    0.403749    0.801789     0.007504
PD3840   PD        0.614075    0.370515    0.801501     0.005394
PD3841   PD        0.613319    0.401661    0.767893     0.005394
PD3842   PD        0.648072    0.366379    0.766730     0.005394
PD3843   PD        0.683623    0.402915    0.767537     0.005394
PD3844   PD        0.188743    0.469945    0.769850     0.005394
PD3845   PD        0.218394    0.438667    0.770981     0.005394
PD3846   PD        0.255803    0.433800    0.800320     0.005394
PD3847   PD        0.253842    0.471047    0.769889     0.005394
AU3848   AU        0.291807    0.436071    0.766903     0.007504
PD3849   PD        0.288594    0.470302    0.801763     0.005394
PD3850   PD        0.329596    0.437827    0.803877     0.005394
PD3851   PD        0.327285    0.467150    0.768036     0.005394
AU3852   AU        0.361966    0.435412    0.769320     0.007504
PD3853   PD        0.358145    0.465822    0.804377     0.005394
PD3854   PD        0.401108    0.434332    0.803259     0.005394
PD3855   PD        0.398941    0.468779    0.770998     0.005394
PD3856   PD        0.433257    0.438016    0.767848     0.005394
AU3857   AU        0.437529    0.469695    0.800585     0.007504
PD3858   PD        0.474305    0.438144    0.801916     0.005394
AU3859   AU        0.471329    0.468503    0.768446     0.007504
AU3860   AU        0.507451    0.435974    0.768399     0.007504
PD3861   PD        0.506677    0.469896    0.798823     0.005394
PD3862   PD        0.545374    0.436196    0.802436     0.005394
PD3863   PD        0.541360    0.470283    0.769761     0.005394
AU3864   AU        0.578898    0.434952    0.769192     0.007504
PD3865   PD        0.577386    0.468431    0.799452     0.005394
PD3866   PD        0.612726    0.435013    0.803282     0.005394
PD3867   PD        0.612747    0.467178    0.769367     0.005394
PD3868   PD        0.649862    0.436938    0.766941     0.005394
PD3869   PD        0.688086    0.469253    0.766090     0.005394
PD3870   PD        0.221798    0.504600    0.768934     0.005394
PD3871   PD        0.255859    0.504130    0.803003     0.005394
PD3872   PD        0.256658    0.535876    0.769082     0.005394
AU3873   AU        0.291483    0.504216    0.769875     0.007504
PD3874   PD        0.291579    0.536403    0.802551     0.005394
PD3875   PD        0.325210    0.501519    0.800928     0.005394
PD3876   PD        0.326883    0.534986    0.767134     0.005394
PD3877   PD        0.363468    0.500057    0.767888     0.005394
PD3878   PD        0.361338    0.535933    0.799587     0.005394
PD3879   PD        0.402436    0.506621    0.866582     0.005394
PD3880   PD        0.401478    0.537252    0.767444     0.005394
PD3881   PD        0.438271    0.501605    0.769850     0.005394
PD3882   PD        0.436309    0.532405    0.800192     0.005394
PD3883   PD        0.472831    0.502241    0.802974     0.005394
PD3884   PD        0.473253    0.536375    0.766398     0.005394
AU3885   AU        0.506999    0.502986    0.766543     0.007504
PD3886   PD        0.471993    0.499953    0.867296     0.005394
PD3887   PD        0.541668    0.500741    0.801679     0.005394
PD3888   PD        0.540858    0.536329    0.767614     0.005394
PD3889   PD        0.578132    0.502658    0.768810     0.005394
PD3890   PD        0.577326    0.536634    0.799551     0.005394
PD3891   PD        0.615067    0.503527    0.799951     0.005394
AU3892   AU        0.613620    0.537971    0.769549     0.007504
PD3893   PD        0.612221    0.570792    0.801934     0.005394
PD3894   PD        0.254113    0.601999    0.768027     0.005394
PD3895   PD        0.291019    0.566914    0.769250     0.005394
PD3896   PD        0.326412    0.571406    0.803204     0.005394
PD3897   PD        0.326629    0.602202    0.769309     0.005394
PD3898   PD        0.362539    0.570586    0.769474     0.005394
PD3899   PD        0.364678    0.604178    0.802655     0.005394
PD3900   PD        0.327671    0.606624    0.835261     0.005394
PD3901   PD        0.400380    0.603157    0.769621     0.005394
PD3902   PD        0.439050    0.568371    0.767389     0.005394
PD3903   PD        0.432013    0.602120    0.798640     0.005394
PD3904   PD        0.506872    0.536392    0.801139     0.005394
PD3905   PD        0.472853    0.602595    0.767120     0.005394
PD3906   PD        0.506806    0.569907    0.766803     0.005394
PD3907   PD        0.506239    0.600660    0.796576     0.005394
PD3908   PD        0.543822    0.571383    0.799215     0.005394
AU3909   AU        0.541337    0.604289    0.765737     0.007504
PD3910   PD        0.577072    0.571577    0.767328     0.005394
PD3911   PD        0.615221    0.599176    0.769358     0.005394
PD3912   PD        0.364591    0.632799    0.768849     0.005394
PD3913   PD        0.433048    0.667572    0.804329     0.005394
PD3914   PD        0.434645    0.634216    0.767486     0.005394
PD3915   PD        0.466518    0.670337    0.766896     0.005394
PD3916   PD        0.506945    0.636116    0.766057     0.005394
PD3917   PD        0.367994    0.370090    0.833173     0.005394
PD3918   PD        0.470598    0.336259    0.835073     0.005394
PD3919   PD        0.472214    0.404087    0.905019     0.005394
PD3920   PD        0.362309    0.436330    0.837614     0.005394
PD3921   PD        0.399635    0.470129    0.832021     0.005394
PD3922   PD        0.437042    0.436822    0.833587     0.005394
PD3923   PD        0.474053    0.469882    0.834068     0.005394
PD3924   PD        0.507302    0.437139    0.832220     0.005394
PD3925   PD        0.435057    0.501767    0.832462     0.005394
