data_00001
_audit_creation_method   'DISCUS'

_data_chemical_name_common 'Au.cell: Pearson 85'

_cell_length_a             57.1046
_cell_length_b             57.1046
_cell_length_c             57.1046
_cell_angle_alpha     90.0000
_cell_angle_beta      90.0000
_cell_angle_gamma     90.0000

_symmetry_space_group_name_H-M   'P1              '

loop_
_atom_site_label
_atom_site_symbol
_atom_site_fract_x
_atom_site_fract_y
_atom_site_fract_z
_atom_site_u_iso_or_equiv
NI1   NI        0.368115    0.242913    0.056281     0.004307
NI2   NI        0.437124    0.254735    0.042040     0.004307
NI3   NI        0.505348    0.257887    0.039037     0.004307
NI4   NI        0.284166    0.334872    0.055813     0.004307
NI5   NI        0.330714    0.304452    0.064095     0.004307
NI6   NI        0.360237    0.324471    0.039146     0.004307
NI7   NI        0.404237    0.288974    0.040250     0.004307
AU8   AU        0.435527    0.327993    0.041953     0.007504
AU9   AU        0.471388    0.294247    0.045363     0.007504
NI10   NI        0.527390    0.326787    0.051276     0.004307
NI11   NI        0.564204    0.293854    0.059994     0.004307
NI12   NI        0.570270    0.330063    0.032847     0.004307
NI13   NI        0.248404    0.369835    0.051185     0.004307
NI14   NI        0.288849    0.400492    0.049884     0.004307
NI15   NI        0.326473    0.358989    0.044853     0.004307
AU16   AU        0.358685    0.398442    0.047152     0.007504
AU17   AU        0.398781    0.364081    0.041160     0.007504
NI18   NI        0.390258    0.400685    0.014003     0.004307
NI19   NI        0.421694    0.351082    0.000714     0.004307
AU20   AU        0.430057    0.402326    0.047713     0.007504
AU21   AU        0.470978    0.373197    0.065570     0.007504
NI22   NI        0.465376    0.406043    0.021369     0.004307
NI23   NI        0.480484    0.344616    0.025165     0.004307
NI24   NI        0.545606    0.382543    0.015737     0.004307
NI25   NI        0.529133    0.419009    0.038257     0.004307
NI26   NI        0.693152    0.353545    0.081452     0.004307
NI27   NI        0.228607    0.443507    0.038165     0.004307
NI28   NI        0.166108    0.474101    0.083954     0.004307
AU29   AU        0.322061    0.436023    0.060261     0.007504
NI30   NI        0.387594    0.491418    0.028615     0.004307
AU31   AU        0.354956    0.465039    0.040993     0.007504
AU32   AU        0.397588    0.440714    0.045786     0.007504
NI33   NI        0.371768    0.533640    0.030051     0.004307
NI34   NI        0.426468    0.434763    0.005453     0.004307
AU35   AU        0.425998    0.480381    0.059911     0.007504
AU36   AU        0.448173    0.446820    0.040678     0.007504
NI37   NI        0.478095    0.461781    0.002263     0.004307
NI38   NI        0.508895    0.380277    0.041794     0.004307
AU39   AU        0.508061    0.478842    0.044312     0.007504
NI40   NI        0.560075    0.468471    0.046917     0.004307
NI41   NI        0.579529    0.424171    0.049398     0.004307
NI42   NI        0.611840    0.391307    0.055809     0.004307
NI43   NI        0.254856    0.488689    0.040094     0.004307
NI44   NI        0.287643    0.559231    0.041535     0.004307
AU45   AU        0.307501    0.485702    0.060629     0.007504
NI46   NI        0.321802    0.537137    0.036653     0.004307
AU47   AU        0.399706    0.517610    0.061229     0.007504
NI48   NI        0.435403    0.478472    0.012701     0.004307
NI49   NI        0.463654    0.557403    0.033910     0.004307
AU50   AU        0.466800    0.493884    0.042107     0.007504
NI51   NI        0.505180    0.530241    0.044299     0.004307
NI52   NI        0.574550    0.519536    0.081585     0.004307
NI53   NI        0.551765    0.554623    0.048913     0.004307
NI54   NI        0.606419    0.499370    0.039369     0.004307
NI55   NI        0.362479    0.575108    0.029481     0.004307
NI56   NI        0.324362    0.594873    0.038670     0.004307
NI57   NI        0.422918    0.562240    0.046665     0.004307
NI58   NI        0.454180    0.596956    0.054689     0.004307
NI59   NI        0.488460    0.591302    0.033687     0.004307
NI60   NI        0.518969    0.627077    0.043633     0.004307
NI61   NI        0.561165    0.602005    0.049659     0.004307
NI62   NI        0.296967    0.186021    0.110209     0.004307
NI63   NI        0.360390    0.202979    0.104930     0.004307
NI64   NI        0.426378    0.187717    0.058198     0.004307
NI65   NI        0.390115    0.206584    0.074955     0.004307
AU66   AU        0.429166    0.186545    0.118861     0.007504
NI67   NI        0.487383    0.143884    0.117741     0.004307
NI68   NI        0.468054    0.182216    0.090143     0.004307
NI69   NI        0.513181    0.179038    0.123988     0.004307
NI70   NI        0.562178    0.154639    0.138214     0.004307
NI71   NI        0.212173    0.281631    0.101107     0.004307
NI72   NI        0.223481    0.203727    0.132451     0.004307
NI73   NI        0.247811    0.258679    0.090867     0.004307
AU74   AU        0.282839    0.262130    0.122923     0.007504
NI75   NI        0.322944    0.218570    0.114290     0.004307
NI76   NI        0.318459    0.259951    0.087619     0.004307
NI77   NI        0.334706    0.168467    0.085431     0.004307
AU78   AU        0.357871    0.260983    0.106552     0.007504
AU79   AU        0.398596    0.227066    0.117854     0.007504
NI80   NI        0.410000    0.251732    0.078897     0.004307
NI81   NI        0.439027    0.221431    0.086503     0.004307
AU82   AU        0.436959    0.260788    0.118550     0.007504
AU83   AU        0.467036    0.220593    0.115628     0.007504
AU84   AU        0.472201    0.255985    0.077331     0.007504
NI85   NI        0.504823    0.213873    0.090705     0.004307
AU86   AU        0.506391    0.251635    0.115453     0.007504
AU87   AU        0.543865    0.217145    0.113247     0.007504
NI88   NI        0.538986    0.252537    0.072008     0.004307
AU89   AU        0.578982    0.252265    0.111178     0.007504
NI90   NI        0.579658    0.213142    0.138135     0.004307
NI91   NI        0.647340    0.271716    0.083725     0.004307
NI92   NI        0.650158    0.248733    0.126973     0.004307
NI93   NI        0.176596    0.292157    0.126728     0.004307
AU94   AU        0.208419    0.329867    0.121757     0.007504
AU95   AU        0.249782    0.300393    0.120739     0.007504
AU96   AU        0.243664    0.358278    0.099624     0.007504
AU97   AU        0.282278    0.294316    0.085145     0.007504
AU98   AU        0.287244    0.334183    0.113102     0.007504
AU99   AU        0.323653    0.298122    0.110973     0.007504
AU100   AU        0.321645    0.341495    0.087516     0.007504
NI101   NI        0.370563    0.285632    0.071438     0.004307
AU102   AU        0.363675    0.326970    0.110699     0.007504
AU103   AU        0.398147    0.289949    0.111149     0.007504
AU104   AU        0.397347    0.325462    0.073671     0.007504
AU105   AU        0.436317    0.289771    0.076891     0.007504
AU106   AU        0.436171    0.324025    0.112268     0.007504
AU107   AU        0.474257    0.291370    0.112512     0.007504
AU108   AU        0.471735    0.325767    0.078265     0.007504
AU109   AU        0.507231    0.291142    0.077422     0.007504
AU110   AU        0.510784    0.327324    0.113774     0.007504
AU111   AU        0.546496    0.290723    0.112621     0.007504
AU112   AU        0.557281    0.329283    0.084850     0.007504
NI113   NI        0.609375    0.312443    0.078465     0.004307
AU114   AU        0.585693    0.328552    0.118422     0.007504
AU115   AU        0.622205    0.294821    0.121616     0.007504
NI116   NI        0.650977    0.313152    0.078214     0.004307
NI117   NI        0.665208    0.331884    0.114026     0.004307
NI118   NI        0.701761    0.290184    0.115125     0.004307
NI119   NI        0.153084    0.411177    0.106588     0.004307
NI120   NI        0.174228    0.369344    0.103459     0.004307
NI121   NI        0.176796    0.421151    0.065495     0.004307
NI122   NI        0.203908    0.378064    0.073321     0.004307
AU123   AU        0.202834    0.413623    0.111082     0.007504
AU124   AU        0.253045    0.402647    0.126011     0.007504
AU125   AU        0.239459    0.411411    0.077506     0.007504
AU126   AU        0.285217    0.372733    0.080505     0.007504
AU127   AU        0.285142    0.423334    0.095222     0.007504
AU128   AU        0.340134    0.361361    0.122749     0.007504
AU129   AU        0.323950    0.391681    0.080825     0.007504
AU130   AU        0.362866    0.362073    0.075001     0.007504
AU131   AU        0.364564    0.396525    0.112238     0.007504
AU132   AU        0.401132    0.361219    0.110916     0.007504
AU133   AU        0.400902    0.401242    0.080108     0.007504
AU134   AU        0.432332    0.361360    0.078928     0.007504
AU135   AU        0.437002    0.396971    0.115276     0.007504
AU136   AU        0.476578    0.364530    0.109757     0.007504
AU137   AU        0.475707    0.417077    0.072296     0.007504
AU138   AU        0.520916    0.365491    0.084205     0.007504
AU139   AU        0.506438    0.406335    0.111143     0.007504
AU140   AU        0.553485    0.366401    0.121582     0.007504
AU141   AU        0.549861    0.404117    0.083673     0.007504
NI142   NI        0.563792    0.366499    0.056770     0.004307
AU143   AU        0.584107    0.409086    0.119033     0.007504
NI144   NI        0.623792    0.350515    0.094198     0.004307
NI145   NI        0.621530    0.415789    0.086388     0.004307
NI146   NI        0.652867    0.379837    0.093381     0.004307
AU147   AU        0.656498    0.410286    0.123589     0.007504
NI148   NI        0.712675    0.367866    0.114077     0.004307
NI149   NI        0.701025    0.456258    0.080509     0.004307
NI150   NI        0.691902    0.410259    0.096692     0.004307
NI151   NI        0.145755    0.496891    0.116168     0.004307
NI152   NI        0.177625    0.455395    0.118296     0.004307
NI153   NI        0.176544    0.557476    0.072441     0.004307
AU154   AU        0.214365    0.453496    0.082451     0.007504
AU155   AU        0.210276    0.487692    0.117763     0.007504
AU156   AU        0.243235    0.446791    0.114935     0.007504
AU157   AU        0.252027    0.485083    0.090829     0.007504
AU158   AU        0.275341    0.447391    0.058314     0.007504
AU159   AU        0.292854    0.466192    0.117728     0.007504
AU160   AU        0.329488    0.432975    0.111204     0.007504
AU161   AU        0.338944    0.474672    0.089322     0.007504
AU162   AU        0.366548    0.437111    0.076512     0.007504
NI163   NI        0.368119    0.469329    0.126479     0.004307
AU164   AU        0.400810    0.435767    0.116334     0.007504
AU165   AU        0.387839    0.474582    0.080147     0.007504
AU166   AU        0.430265    0.438257    0.082049     0.007504
AU167   AU        0.434718    0.474875    0.113017     0.007504
AU168   AU        0.465633    0.437499    0.118976     0.007504
AU169   AU        0.472035    0.466840    0.079375     0.007504
AU170   AU        0.513249    0.439855    0.075988     0.007504
AU171   AU        0.505101    0.472569    0.117707     0.007504
AU172   AU        0.541476    0.441807    0.116669     0.007504
AU173   AU        0.543497    0.480780    0.084507     0.007504
AU174   AU        0.579321    0.446946    0.088062     0.007504
AU175   AU        0.577180    0.477597    0.123282     0.007504
AU176   AU        0.617673    0.441793    0.121786     0.007504
NI177   NI        0.639157    0.472623    0.062782     0.004307
NI178   NI        0.657994    0.444241    0.091343     0.004307
AU179   AU        0.644071    0.480612    0.112809     0.007504
NI180   NI        0.694290    0.449134    0.119723     0.004307
NI181   NI        0.694353    0.500319    0.085440     0.004307
NI182   NI        0.724274    0.477579    0.128197     0.004307
AU183   AU        0.174867    0.526418    0.122254     0.007504
NI184   NI        0.213274    0.517348    0.073663     0.004307
AU185   AU        0.210472    0.561371    0.104907     0.007504
AU186   AU        0.243940    0.526593    0.111857     0.007504
NI187   NI        0.248962    0.571056    0.083920     0.004307
AU188   AU        0.276432    0.522069    0.072337     0.007504
AU189   AU        0.285269    0.557406    0.105172     0.007504
AU190   AU        0.320553    0.520059    0.093388     0.007504
NI191   NI        0.325062    0.562349    0.076062     0.004307
AU192   AU        0.351677    0.512127    0.062219     0.007504
AU193   AU        0.360666    0.568077    0.103439     0.007504
AU194   AU        0.378024    0.518583    0.107987     0.007504
AU195   AU        0.403979    0.549757    0.092222     0.007504
AU196   AU        0.447290    0.523695    0.070009     0.007504
AU197   AU        0.443125    0.550903    0.110805     0.007504
AU198   AU        0.465392    0.512280    0.116908     0.007504
AU199   AU        0.479545    0.558899    0.075137     0.007504
AU200   AU        0.499107    0.510533    0.083717     0.007504
AU201   AU        0.498435    0.547686    0.119343     0.007504
AU202   AU        0.536663    0.514344    0.119563     0.007504
AU203   AU        0.526594    0.548532    0.086313     0.007504
NI204   NI        0.603959    0.486341    0.083457     0.004307
AU205   AU        0.573161    0.546438    0.121588     0.007504
AU206   AU        0.611573    0.511567    0.125253     0.007504
AU207   AU        0.613281    0.547100    0.088809     0.007504
NI208   NI        0.645090    0.518354    0.092988     0.004307
AU209   AU        0.650024    0.546076    0.126854     0.007504
NI210   NI        0.686400    0.506299    0.124731     0.004307
NI211   NI        0.173287    0.594646    0.111179     0.004307
NI212   NI        0.219901    0.605798    0.125275     0.004307
AU213   AU        0.264321    0.603719    0.108628     0.007504
NI214   NI        0.223831    0.662115    0.103258     0.004307
NI215   NI        0.289883    0.594095    0.074267     0.004307
NI216   NI        0.300462    0.629896    0.099777     0.004307
AU217   AU        0.316112    0.592410    0.115036     0.007504
NI218   NI        0.286213    0.672749    0.073115     0.004307
AU219   AU        0.391927    0.591717    0.074685     0.007504
AU220   AU        0.352458    0.629331    0.113599     0.007504
AU221   AU        0.403056    0.589162    0.124182     0.007504
AU222   AU        0.398538    0.629515    0.098326     0.007504
AU223   AU        0.435836    0.591909    0.094385     0.007504
AU224   AU        0.435051    0.627615    0.128548     0.007504
AU225   AU        0.478113    0.587390    0.117803     0.007504
AU226   AU        0.468900    0.627932    0.088761     0.007504
AU227   AU        0.511668    0.597291    0.079677     0.007504
AU228   AU        0.507199    0.625128    0.121429     0.007504
AU229   AU        0.537710    0.584677    0.120768     0.007504
NI230   NI        0.547762    0.617025    0.091514     0.004307
NI231   NI        0.581200    0.585204    0.090271     0.004307
AU232   AU        0.580285    0.621011    0.124643     0.007504
AU233   AU        0.613836    0.582639    0.125480     0.007504
NI234   NI        0.565226    0.656359    0.048391     0.004307
NI235   NI        0.628573    0.625491    0.104195     0.004307
NI236   NI        0.650839    0.583630    0.096563     0.004307
NI237   NI        0.258143    0.647277    0.121104     0.004307
NI238   NI        0.280160    0.706702    0.131863     0.004307
NI239   NI        0.321171    0.663060    0.115609     0.004307
NI240   NI        0.348106    0.598871    0.074774     0.004307
NI241   NI        0.363594    0.697383    0.122057     0.004307
AU242   AU        0.408521    0.666184    0.123509     0.007504
NI243   NI        0.365812    0.661378    0.087530     0.004307
NI244   NI        0.429584    0.647049    0.065272     0.004307
NI245   NI        0.441092    0.691953    0.101722     0.004307
AU246   AU        0.470429    0.664982    0.123245     0.007504
NI247   NI        0.484750    0.678836    0.085092     0.004307
NI248   NI        0.515377    0.648671    0.081128     0.004307
AU249   AU        0.508909    0.697732    0.121797     0.007504
AU250   AU        0.548080    0.660827    0.118147     0.007504
NI251   NI        0.586193    0.696592    0.127440     0.004307
NI252   NI        0.589469    0.637074    0.077665     0.004307
NI253   NI        0.409181    0.727152    0.106211     0.004307
NI254   NI        0.470316    0.725541    0.108659     0.004307
NI255   NI        0.324002    0.111938    0.200655     0.004307
NI256   NI        0.355238    0.115985    0.174904     0.004307
NI257   NI        0.389279    0.093865    0.169119     0.004307
NI258   NI        0.417985    0.111020    0.127539     0.004307
NI259   NI        0.435867    0.111675    0.182110     0.004307
NI260   NI        0.470734    0.088705    0.188561     0.004307
NI261   NI        0.489361    0.113468    0.156038     0.004307
NI262   NI        0.506245    0.114502    0.194132     0.004307
NI263   NI        0.575648    0.098192    0.216060     0.004307
NI264   NI        0.191131    0.168156    0.181040     0.004307
NI265   NI        0.276555    0.138628    0.164229     0.004307
NI266   NI        0.240994    0.174669    0.165012     0.004307
NI267   NI        0.300766    0.146878    0.126802     0.004307
AU268   AU        0.282696    0.186064    0.184577     0.007504
AU269   AU        0.322136    0.154658    0.173969     0.007504
NI270   NI        0.342175    0.175757    0.131873     0.004307
NI271   NI        0.379548    0.143222    0.134607     0.004307
AU272   AU        0.357472    0.188879    0.180728     0.007504
AU273   AU        0.395136    0.149350    0.177806     0.007504
AU274   AU        0.391706    0.190963    0.152108     0.007504
NI275   NI        0.443505    0.144596    0.148039     0.004307
AU276   AU        0.432428    0.183359    0.180597     0.007504
AU277   AU        0.471089    0.148587    0.185751     0.007504
AU278   AU        0.470992    0.183225    0.147863     0.007504
NI279   NI        0.514198    0.146918    0.155096     0.004307
AU280   AU        0.507054    0.179480    0.182420     0.007504
NI281   NI        0.546068    0.160629    0.181291     0.004307
AU282   AU        0.544931    0.190946    0.154107     0.007504
NI283   NI        0.553264    0.122935    0.166756     0.004307
AU284   AU        0.558956    0.180381    0.217483     0.007504
NI285   NI        0.590755    0.153296    0.190667     0.004307
AU286   AU        0.631158    0.213746    0.171747     0.007504
NI287   NI        0.598863    0.181817    0.156863     0.004307
NI288   NI        0.141732    0.248462    0.209874     0.004307
NI289   NI        0.146649    0.228993    0.164961     0.004307
NI290   NI        0.189756    0.255846    0.140885     0.004307
NI291   NI        0.199515    0.212663    0.168655     0.004307
AU292   AU        0.213839    0.261221    0.179100     0.007504
AU293   AU        0.243007    0.219923    0.174071     0.007504
AU294   AU        0.237084    0.251915    0.135463     0.007504
AU295   AU        0.283049    0.213108    0.143542     0.007504
AU296   AU        0.281314    0.254278    0.174069     0.007504
AU297   AU        0.319448    0.220227    0.175833     0.007504
AU298   AU        0.322098    0.259871    0.141337     0.007504
AU299   AU        0.359807    0.226692    0.144591     0.007504
AU300   AU        0.358459    0.251398    0.180191     0.007504
AU301   AU        0.397325    0.219826    0.184351     0.007504
AU302   AU        0.397069    0.257444    0.149411     0.007504
AU303   AU        0.435613    0.223149    0.152476     0.007504
NI304   NI        0.431590    0.267596    0.174589     0.004307
AU305   AU        0.471891    0.216545    0.185684     0.007504
AU306   AU        0.474779    0.255672    0.152549     0.007504
AU307   AU        0.506334    0.218148    0.147346     0.007504
NI308   NI        0.505193    0.256650    0.194186     0.004307
AU309   AU        0.534266    0.224316    0.189329     0.007504
AU310   AU        0.543651    0.252248    0.146651     0.007504
AU311   AU        0.582951    0.216516    0.181668     0.007504
AU312   AU        0.573285    0.257984    0.188806     0.007504
AU313   AU        0.614071    0.246940    0.203226     0.007504
AU314   AU        0.609911    0.249042    0.153464     0.007504
NI315   NI        0.666834    0.214800    0.151205     0.004307
AU316   AU        0.658402    0.257519    0.177617     0.007504
NI317   NI        0.741358    0.232742    0.142282     0.004307
NI318   NI        0.698376    0.254555    0.146127     0.004307
NI319   NI        0.725169    0.247508    0.188694     0.004307
NI320   NI        0.092560    0.307962    0.215364     0.004307
NI321   NI        0.123520    0.303260    0.169413     0.004307
AU322   AU        0.154528    0.343141    0.175652     0.007504
AU323   AU        0.176605    0.298928    0.180203     0.007504
NI324   NI        0.176450    0.353306    0.143060     0.004307
AU325   AU        0.220343    0.296569    0.155338     0.007504
AU326   AU        0.208715    0.338783    0.172898     0.007504
AU327   AU        0.260323    0.302337    0.185152     0.007504
AU328   AU        0.251827    0.335600    0.146727     0.007504
AU329   AU        0.290533    0.302343    0.150636     0.007504
AU330   AU        0.285774    0.343489    0.183388     0.007504
AU331   AU        0.319647    0.288286    0.181228     0.007504
NI332   NI        0.327569    0.329617    0.150943     0.004307
AU333   AU        0.360669    0.291962    0.145945     0.007504
NI334   NI        0.355235    0.323477    0.207144     0.004307
NI335   NI        0.386399    0.290027    0.187414     0.004307
AU336   AU        0.397276    0.325879    0.145868     0.007504
NI337   NI        0.433073    0.300122    0.149181     0.004307
NI338   NI        0.435284    0.328669    0.182478     0.004307
NI339   NI        0.466102    0.299121    0.177121     0.004307
AU340   AU        0.473496    0.328030    0.146101     0.007504
AU341   AU        0.510612    0.291591    0.146867     0.007504
AU342   AU        0.507241    0.332658    0.181171     0.007504
AU343   AU        0.543009    0.293865    0.187505     0.007504
AU344   AU        0.544885    0.326213    0.147109     0.007504
AU345   AU        0.577892    0.290526    0.149853     0.007504
AU346   AU        0.589969    0.337332    0.168889     0.007504
AU347   AU        0.627406    0.295528    0.171288     0.007504
AU348   AU        0.632968    0.337499    0.142548     0.007504
AU349   AU        0.665104    0.293137    0.144536     0.007504
AU350   AU        0.668485    0.327554    0.174833     0.007504
AU351   AU        0.697162    0.289409    0.180241     0.007504
AU352   AU        0.705416    0.326424    0.147640     0.007504
NI353   NI        0.737755    0.286676    0.146126     0.004307
NI354   NI        0.733755    0.327456    0.179480     0.004307
NI355   NI        0.757157    0.285303    0.189792     0.004307
NI356   NI        0.080744    0.391756    0.194653     0.004307
AU357   AU        0.115997    0.375266    0.183928     0.007504
NI358   NI        0.104666    0.406080    0.153129     0.004307
NI359   NI        0.144348    0.380329    0.145226     0.004307
AU360   AU        0.133790    0.418691    0.182383     0.007504
AU361   AU        0.193369    0.379930    0.180026     0.007504
AU362   AU        0.172252    0.415306    0.148638     0.007504
AU363   AU        0.217215    0.370126    0.135807     0.007504
AU364   AU        0.223611    0.419337    0.197718     0.007504
AU365   AU        0.245282    0.376550    0.173282     0.007504
NI366   NI        0.217699    0.410514    0.156464     0.004307
NI367   NI        0.279901    0.372551    0.150836     0.004307
AU368   AU        0.277355    0.418801    0.168650     0.007504
NI369   NI        0.316791    0.379989    0.167846     0.004307
NI370   NI        0.306932    0.390014    0.121687     0.004307
NI371   NI        0.375907    0.361704    0.146884     0.004307
NI372   NI        0.359876    0.417508    0.207050     0.004307
NI373   NI        0.403066    0.360672    0.185351     0.004307
AU374   AU        0.402830    0.397186    0.145545     0.007504
AU375   AU        0.438842    0.360251    0.148227     0.007504
AU376   AU        0.437531    0.396426    0.181178     0.007504
NI377   NI        0.473053    0.362051    0.181390     0.004307
AU378   AU        0.472875    0.398351    0.148771     0.007504
AU379   AU        0.510393    0.365361    0.146540     0.007504
AU380   AU        0.507725    0.397079    0.184447     0.007504
AU381   AU        0.546526    0.363253    0.182812     0.007504
AU382   AU        0.543551    0.404504    0.149124     0.007504
AU383   AU        0.601606    0.369574    0.131043     0.007504
AU384   AU        0.577528    0.401612    0.186170     0.007504
NI385   NI        0.629561    0.393307    0.191865     0.004307
AU386   AU        0.618736    0.411300    0.154737     0.007504
AU387   AU        0.672110    0.367858    0.141462     0.007504
AU388   AU        0.665818    0.400399    0.168913     0.007504
AU389   AU        0.699677    0.363484    0.181956     0.007504
AU390   AU        0.703234    0.406093    0.148253     0.007504
NI391   NI        0.733247    0.366712    0.150856     0.004307
AU392   AU        0.729738    0.400981    0.186100     0.007504
NI393   NI        0.763257    0.366259    0.185796     0.004307
NI394   NI        0.737747    0.405105    0.118882     0.004307
NI395   NI        0.822705    0.388822    0.227681     0.004307
NI396   NI        0.072285    0.484677    0.172830     0.004307
NI397   NI        0.098887    0.446529    0.195757     0.004307
NI398   NI        0.134198    0.455035    0.103814     0.004307
NI399   NI        0.135927    0.453389    0.147116     0.004307
AU400   AU        0.144212    0.464276    0.196705     0.007504
AU401   AU        0.176313    0.426769    0.194834     0.007504
NI402   NI        0.169956    0.483384    0.154426     0.004307
AU403   AU        0.211536    0.454944    0.155495     0.007504
AU404   AU        0.206613    0.467594    0.199124     0.007504
AU405   AU        0.253323    0.460225    0.184848     0.007504
AU406   AU        0.249813    0.489142    0.143810     0.007504
NI407   NI        0.318230    0.430597    0.152157     0.004307
NI408   NI        0.282467    0.505929    0.187608     0.004307
NI409   NI        0.333090    0.456452    0.207481     0.004307
NI410   NI        0.297854    0.473828    0.162233     0.004307
NI411   NI        0.359005    0.408673    0.161029     0.004307
NI412   NI        0.357753    0.450000    0.172011     0.004307
NI413   NI        0.405916    0.425943    0.194503     0.004307
NI414   NI        0.406670    0.472203    0.152108     0.004307
AU415   AU        0.434192    0.436134    0.150506     0.007504
AU416   AU        0.434182    0.466295    0.191789     0.007504
AU417   AU        0.473041    0.432802    0.189271     0.007504
AU418   AU        0.465546    0.473836    0.154577     0.007504
AU419   AU        0.505209    0.435486    0.153192     0.007504
AU420   AU        0.503960    0.473831    0.188595     0.007504
AU421   AU        0.540094    0.438263    0.187235     0.007504
AU422   AU        0.538837    0.475509    0.154143     0.007504
AU423   AU        0.577416    0.440870    0.155916     0.007504
AU424   AU        0.571912    0.477080    0.190865     0.007504
AU425   AU        0.607696    0.441179    0.195864     0.007504
AU426   AU        0.616505    0.471785    0.152287     0.007504
AU427   AU        0.658590    0.447387    0.148923     0.007504
AU428   AU        0.651262    0.466927    0.189010     0.007504
AU429   AU        0.693278    0.438366    0.187926     0.007504
NI430   NI        0.695537    0.469861    0.157580     0.004307
NI431   NI        0.732734    0.441620    0.156924     0.004307
AU432   AU        0.730311    0.479169    0.179210     0.007504
NI433   NI        0.771618    0.445826    0.180450     0.004307
NI434   NI        0.781666    0.493917    0.163081     0.004307
NI435   NI        0.835878    0.442465    0.241352     0.004307
NI436   NI        0.102472    0.523424    0.175582     0.004307
NI437   NI        0.140620    0.511563    0.159558     0.004307
AU438   AU        0.142961    0.552087    0.184847     0.007504
AU439   AU        0.180174    0.523664    0.173673     0.007504
AU440   AU        0.188976    0.570487    0.143525     0.007504
AU441   AU        0.215852    0.525891    0.144610     0.007504
AU442   AU        0.217416    0.553914    0.178484     0.007504
AU443   AU        0.233813    0.506517    0.187523     0.007504
AU444   AU        0.264108    0.535789    0.158372     0.007504
AU445   AU        0.291942    0.512948    0.128973     0.007504
AU446   AU        0.306737    0.545415    0.179357     0.007504
NI447   NI        0.335259    0.507686    0.180179     0.004307
AU448   AU        0.329727    0.549193    0.134657     0.007504
NI449   NI        0.338442    0.501334    0.133021     0.004307
NI450   NI        0.368216    0.537184    0.175775     0.004307
NI451   NI        0.395517    0.504889    0.209202     0.004307
AU452   AU        0.403331    0.550377    0.144167     0.007504
NI453   NI        0.430389    0.514655    0.146396     0.004307
AU454   AU        0.456045    0.545025    0.218542     0.007504
AU455   AU        0.461450    0.508340    0.184562     0.007504
AU456   AU        0.467500    0.549156    0.149852     0.007504
AU457   AU        0.500663    0.509863    0.151489     0.007504
AU458   AU        0.496388    0.546935    0.188707     0.007504
AU459   AU        0.534888    0.511898    0.191378     0.007504
AU460   AU        0.533733    0.548591    0.153265     0.007504
AU461   AU        0.571876    0.514184    0.157621     0.007504
NI462   NI        0.566984    0.540581    0.198847     0.004307
AU463   AU        0.615021    0.503575    0.182382     0.007504
AU464   AU        0.608335    0.545865    0.158389     0.007504
AU465   AU        0.654381    0.503925    0.154880     0.007504
AU466   AU        0.658729    0.553652    0.177275     0.007504
AU467   AU        0.694866    0.514777    0.178877     0.007504
NI468   NI        0.696911    0.549247    0.140229     0.004307
NI469   NI        0.730566    0.521599    0.147721     0.004307
AU470   AU        0.724930    0.555381    0.183130     0.007504
NI471   NI        0.756213    0.519367    0.183921     0.004307
NI472   NI        0.101976    0.585887    0.176738     0.004307
NI473   NI        0.140402    0.563483    0.136614     0.004307
NI474   NI        0.135710    0.625594    0.184744     0.004307
AU475   AU        0.177029    0.590191    0.186136     0.007504
NI476   NI        0.176037    0.623611    0.149651     0.004307
AU477   AU        0.241780    0.571032    0.137296     0.007504
AU478   AU        0.213376    0.624480    0.181582     0.007504
AU479   AU        0.252013    0.589699    0.183568     0.007504
AU480   AU        0.255240    0.623587    0.154795     0.007504
AU481   AU        0.286122    0.581595    0.149205     0.007504
AU482   AU        0.293161    0.609708    0.188435     0.007504
AU483   AU        0.345792    0.577192    0.181367     0.007504
AU484   AU        0.314342    0.622944    0.152034     0.007504
AU485   AU        0.357976    0.594781    0.144604     0.007504
AU486   AU        0.367942    0.620232    0.188018     0.007504
AU487   AU        0.395422    0.586473    0.176032     0.007504
AU488   AU        0.391860    0.627944    0.146187     0.007504
AU489   AU        0.441374    0.585958    0.147991     0.007504
AU490   AU        0.429045    0.623019    0.182810     0.007504
AU491   AU        0.461743    0.581956    0.188217     0.007504
AU492   AU        0.468767    0.625517    0.154475     0.007504
AU493   AU        0.500458    0.585799    0.155149     0.007504
NI494   NI        0.505671    0.626329    0.180723     0.004307
NI495   NI        0.535421    0.578288    0.186453     0.004307
AU496   AU        0.546532    0.625018    0.154963     0.007504
AU497   AU        0.572782    0.581215    0.158778     0.007504
AU498   AU        0.585986    0.627447    0.183784     0.007504
AU499   AU        0.618902    0.588883    0.178002     0.007504
AU500   AU        0.623648    0.629446    0.148484     0.007504
AU501   AU        0.657255    0.594216    0.151066     0.007504
AU502   AU        0.660302    0.628891    0.186212     0.007504
AU503   AU        0.694665    0.593080    0.186861     0.007504
NI504   NI        0.695431    0.630537    0.149616     0.004307
NI505   NI        0.767449    0.556965    0.144089     0.004307
NI506   NI        0.719491    0.591835    0.149219     0.004307
NI507   NI        0.788243    0.561353    0.206639     0.004307
NI508   NI        0.177839    0.662017    0.183460     0.004307
NI509   NI        0.215110    0.656329    0.143699     0.004307
NI510   NI        0.208521    0.695138    0.180424     0.004307
AU511   AU        0.246197    0.665792    0.182625     0.007504
NI512   NI        0.242982    0.696196    0.144876     0.004307
AU513   AU        0.287144    0.664785    0.151871     0.007504
AU514   AU        0.282256    0.701087    0.182268     0.007504
AU515   AU        0.329509    0.650539    0.193435     0.007504
AU516   AU        0.321968    0.698974    0.154591     0.007504
AU517   AU        0.356663    0.657524    0.155361     0.007504
AU518   AU        0.359692    0.698508    0.187017     0.007504
AU519   AU        0.395685    0.663377    0.185817     0.007504
NI520   NI        0.400749    0.696089    0.158228     0.004307
AU521   AU        0.435350    0.663622    0.158104     0.007504
AU522   AU        0.435123    0.698903    0.186567     0.007504
AU523   AU        0.473096    0.664625    0.185022     0.007504
AU524   AU        0.474451    0.699069    0.152436     0.007504
AU525   AU        0.512906    0.662491    0.154591     0.007504
AU526   AU        0.513150    0.694863    0.192578     0.007504
AU527   AU        0.548602    0.660890    0.186501     0.007504
AU528   AU        0.548338    0.696882    0.153374     0.007504
AU529   AU        0.584148    0.660045    0.153111     0.007504
AU530   AU        0.586489    0.696227    0.187172     0.007504
AU531   AU        0.622468    0.660742    0.185619     0.007504
NI532   NI        0.624132    0.669746    0.122355     0.004307
NI533   NI        0.660871    0.665536    0.150871     0.004307
NI534   NI        0.651701    0.694333    0.184761     0.004307
NI535   NI        0.695777    0.673799    0.203241     0.004307
NI536   NI        0.242582    0.721608    0.181720     0.004307
NI537   NI        0.312187    0.745009    0.145147     0.004307
NI538   NI        0.291998    0.804028    0.203803     0.004307
AU539   AU        0.322027    0.735179    0.186592     0.007504
AU540   AU        0.359200    0.736924    0.155815     0.007504
NI541   NI        0.363009    0.767685    0.187307     0.004307
AU542   AU        0.399148    0.730305    0.183996     0.007504
NI543   NI        0.406239    0.762332    0.148195     0.004307
AU544   AU        0.431950    0.721875    0.142973     0.007504
AU545   AU        0.439644    0.757338    0.185807     0.007504
AU546   AU        0.475000    0.730862    0.191250     0.007504
NI547   NI        0.472890    0.751690    0.149100     0.004307
AU548   AU        0.511378    0.730176    0.159723     0.007504
AU549   AU        0.515548    0.763735    0.195420     0.007504
AU550   AU        0.550480    0.728770    0.190675     0.007504
NI551   NI        0.574348    0.738812    0.142970     0.004307
NI552   NI        0.593552    0.757283    0.180646     0.004307
NI553   NI        0.624280    0.700788    0.155263     0.004307
NI554   NI        0.398355    0.791367    0.184344     0.004307
NI555   NI        0.473510    0.795182    0.192764     0.004307
NI556   NI        0.403251    0.062721    0.232647     0.004307
NI557   NI        0.450583    0.041620    0.240519     0.004307
NI558   NI        0.513457    0.048239    0.278232     0.004307
NI559   NI        0.184978    0.125367    0.279457     0.004307
NI560   NI        0.242355    0.081342    0.267321     0.004307
NI561   NI        0.221870    0.147292    0.212804     0.004307
AU562   AU        0.278995    0.114994    0.255112     0.007504
NI563   NI        0.358768    0.067778    0.250435     0.004307
NI564   NI        0.314857    0.093387    0.243584     0.004307
NI565   NI        0.365448    0.080328    0.205630     0.004307
AU566   AU        0.356386    0.111327    0.247774     0.007504
AU567   AU        0.405202    0.094833    0.261956     0.007504
AU568   AU        0.393831    0.112225    0.213980     0.007504
NI569   NI        0.438690    0.089458    0.224372     0.004307
AU570   AU        0.441047    0.127225    0.263595     0.007504
AU571   AU        0.470505    0.087020    0.265738     0.007504
AU572   AU        0.471010    0.115184    0.225205     0.007504
NI573   NI        0.500633    0.077338    0.224841     0.004307
AU574   AU        0.515472    0.111434    0.254211     0.007504
NI575   NI        0.544904    0.077831    0.268723     0.004307
AU576   AU        0.546563    0.130041    0.219166     0.007504
AU577   AU        0.566591    0.112687    0.255128     0.007504
NI578   NI        0.623957    0.075498    0.277563     0.004307
NI579   NI        0.610665    0.106419    0.247054     0.004307
NI580   NI        0.677597    0.132808    0.220055     0.004307
NI581   NI        0.167863    0.186585    0.249391     0.004307
NI582   NI        0.199341    0.155407    0.252521     0.004307
NI583   NI        0.196145    0.189041    0.215437     0.004307
NI584   NI        0.171406    0.140361    0.220628     0.004307
AU585   AU        0.217936    0.194371    0.253881     0.007504
AU586   AU        0.253702    0.155967    0.254231     0.007504
AU587   AU        0.249539    0.188451    0.216350     0.007504
AU588   AU        0.288401    0.140162    0.211616     0.007504
AU589   AU        0.288966    0.189799    0.250530     0.007504
AU590   AU        0.319773    0.147809    0.250859     0.007504
AU591   AU        0.324881    0.186961    0.215892     0.007504
AU592   AU        0.356710    0.148431    0.211719     0.007504
AU593   AU        0.358548    0.180332    0.253343     0.007504
AU594   AU        0.392258    0.143710    0.250716     0.007504
AU595   AU        0.393956    0.181028    0.215669     0.007504
AU596   AU        0.430810    0.143543    0.214769     0.007504
NI597   NI        0.446143    0.177488    0.256070     0.004307
AU598   AU        0.483669    0.149186    0.260569     0.007504
AU599   AU        0.467110    0.176888    0.219158     0.007504
AU600   AU        0.506047    0.148512    0.222424     0.007504
NI601   NI        0.477754    0.206508    0.258921     0.004307
AU602   AU        0.546126    0.153212    0.257946     0.007504
AU603   AU        0.509682    0.199948    0.222400     0.007504
AU604   AU        0.589702    0.146749    0.233639     0.007504
AU605   AU        0.580277    0.186967    0.255339     0.007504
NI606   NI        0.646923    0.135640    0.249759     0.004307
AU607   AU        0.607360    0.196062    0.214042     0.007504
NI608   NI        0.650248    0.182104    0.207034     0.004307
AU609   AU        0.638707    0.189485    0.252054     0.007504
NI610   NI        0.678992    0.167706    0.244781     0.004307
NI611   NI        0.689252    0.223012    0.188186     0.004307
NI612   NI        0.713884    0.157852    0.281706     0.004307
NI613   NI        0.071351    0.280748    0.246054     0.004307
NI614   NI        0.114209    0.231170    0.241890     0.004307
NI615   NI        0.102982    0.268510    0.219466     0.004307
NI616   NI        0.179219    0.229919    0.201102     0.004307
AU617   AU        0.142352    0.262685    0.252515     0.007504
AU618   AU        0.184154    0.233736    0.255567     0.007504
AU619   AU        0.185927    0.270144    0.221810     0.007504
AU620   AU        0.218671    0.230669    0.218498     0.007504
AU621   AU        0.221591    0.263858    0.254735     0.007504
AU622   AU        0.255303    0.226645    0.252295     0.007504
NI623   NI        0.249011    0.266136    0.211349     0.004307
AU624   AU        0.288972    0.224485    0.215321     0.007504
NI625   NI        0.294984    0.257172    0.253729     0.004307
AU626   AU        0.327985    0.220248    0.254598     0.007504
NI627   NI        0.326923    0.252210    0.212994     0.004307
AU628   AU        0.365598    0.218686    0.219601     0.007504
AU629   AU        0.374072    0.232652    0.267964     0.007504
NI630   NI        0.411798    0.209852    0.258292     0.004307
NI631   NI        0.391188    0.254476    0.220082     0.004307
NI632   NI        0.432298    0.216909    0.214818     0.004307
NI633   NI        0.475301    0.264830    0.267957     0.004307
NI634   NI        0.445293    0.233551    0.270145     0.004307
NI635   NI        0.460416    0.265230    0.204280     0.004307
NI636   NI        0.489590    0.248111    0.233002     0.004307
NI637   NI        0.512575    0.230217    0.264313     0.004307
NI638   NI        0.538249    0.197510    0.258999     0.004307
NI639   NI        0.535606    0.264542    0.223963     0.004307
AU640   AU        0.569333    0.229158    0.228914     0.007504
NI641   NI        0.559614    0.267636    0.265337     0.004307
AU642   AU        0.611297    0.228439    0.250060     0.007504
NI643   NI        0.602821    0.278328    0.240333     0.004307
AU644   AU        0.649078    0.227037    0.220443     0.007504
AU645   AU        0.648118    0.264688    0.253758     0.007504
AU646   AU        0.676425    0.230684    0.261345     0.007504
AU647   AU        0.686475    0.261828    0.221118     0.007504
NI648   NI        0.721138    0.227555    0.227025     0.004307
AU649   AU        0.713100    0.258566    0.264716     0.007504
NI650   NI        0.716259    0.197324    0.258926     0.004307
NI651   NI        0.759792    0.248103    0.242685     0.004307
NI652   NI        0.824584    0.308663    0.282382     0.004307
NI653   NI        0.074040    0.329261    0.260582     0.004307
AU654   AU        0.110865    0.302001    0.256597     0.007504
AU655   AU        0.129699    0.339872    0.216944     0.007504
AU656   AU        0.144114    0.295822    0.217045     0.007504
AU657   AU        0.154857    0.322474    0.258018     0.007504
AU658   AU        0.181088    0.287231    0.267528     0.007504
AU659   AU        0.180406    0.334350    0.218331     0.007504
AU660   AU        0.218610    0.305634    0.206360     0.007504
NI661   NI        0.219583    0.325002    0.252224     0.004307
NI662   NI        0.258019    0.286484    0.252634     0.004307
NI663   NI        0.258465    0.328400    0.228566     0.004307
NI664   NI        0.299598    0.302447    0.226469     0.004307
AU665   AU        0.312561    0.332023    0.262068     0.007504
NI666   NI        0.346048    0.267696    0.261736     0.004307
NI667   NI        0.320832    0.352521    0.223127     0.004307
NI668   NI        0.372209    0.307554    0.258924     0.004307
NI669   NI        0.352159    0.354255    0.250795     0.004307
NI670   NI        0.413061    0.280995    0.272369     0.004307
NI671   NI        0.395098    0.334621    0.227553     0.004307
NI672   NI        0.413092    0.296456    0.232995     0.004307
NI673   NI        0.433900    0.340856    0.246279     0.004307
NI674   NI        0.468592    0.299682    0.238982     0.004307
NI675   NI        0.474067    0.337798    0.216646     0.004307
NI676   NI        0.502170    0.298416    0.208480     0.004307
NI677   NI        0.526211    0.323822    0.245198     0.004307
NI678   NI        0.511577    0.281989    0.256109     0.004307
NI679   NI        0.563666    0.330370    0.210772     0.004307
NI680   NI        0.588441    0.297546    0.200283     0.004307
NI681   NI        0.559285    0.359284    0.241259     0.004307
NI682   NI        0.602164    0.327020    0.260630     0.004307
NI683   NI        0.620077    0.324073    0.217369     0.004307
AU684   AU        0.656906    0.298114    0.213226     0.007504
NI685   NI        0.653153    0.330822    0.253330     0.004307
AU686   AU        0.685059    0.297540    0.256755     0.007504
AU687   AU        0.699571    0.322520    0.215672     0.007504
AU688   AU        0.729128    0.282934    0.232433     0.007504
AU689   AU        0.728778    0.328553    0.256375     0.007504
AU690   AU        0.755625    0.287927    0.272838     0.007504
NI691   NI        0.754706    0.321572    0.221543     0.004307
NI692   NI        0.781846    0.327442    0.261316     0.004307
NI693   NI        0.078632    0.383253    0.261037     0.004307
NI694   NI        0.085130    0.361443    0.222440     0.004307
NI695   NI        0.052938    0.416881    0.250950     0.004307
AU696   AU        0.116602    0.359587    0.257225     0.007504
AU697   AU        0.110223    0.406681    0.226674     0.007504
AU698   AU        0.154141    0.382613    0.212302     0.007504
AU699   AU        0.153409    0.396417    0.262258     0.007504
NI700   NI        0.187197    0.360125    0.262591     0.004307
AU701   AU        0.193435    0.397154    0.229770     0.007504
AU702   AU        0.224552    0.359097    0.214079     0.007504
NI703   NI        0.223801    0.408650    0.273084     0.004307
NI704   NI        0.282526    0.365974    0.253583     0.004307
NI705   NI        0.247049    0.396718    0.238276     0.004307
NI706   NI        0.288591    0.384815    0.209391     0.004307
NI707   NI        0.286880    0.414739    0.255513     0.004307
NI708   NI        0.331496    0.396180    0.253325     0.004307
NI709   NI        0.318877    0.416373    0.197657     0.004307
NI710   NI        0.355183    0.377550    0.194357     0.004307
NI711   NI        0.341944    0.435242    0.241838     0.004307
NI712   NI        0.397842    0.363170    0.271894     0.004307
NI713   NI        0.389195    0.391665    0.228045     0.004307
NI714   NI        0.432103    0.379391    0.223686     0.004307
NI715   NI        0.415907    0.398884    0.259765     0.004307
NI716   NI        0.459124    0.395060    0.267801     0.004307
NI717   NI        0.485280    0.410732    0.229328     0.004307
NI718   NI        0.508872    0.365311    0.223943     0.004307
NI719   NI        0.515025    0.408908    0.276467     0.004307
NI720   NI        0.525639    0.367889    0.275313     0.004307
NI721   NI        0.549170    0.398862    0.220879     0.004307
NI722   NI        0.589698    0.369297    0.213499     0.004307
NI723   NI        0.554861    0.399319    0.262816     0.004307
NI724   NI        0.593692    0.376242    0.271079     0.004307
NI725   NI        0.605176    0.410198    0.233705     0.004307
AU726   AU        0.656673    0.349764    0.211970     0.007504
NI727   NI        0.649556    0.384936    0.245866     0.004307
AU728   AU        0.691281    0.361729    0.243324     0.007504
AU729   AU        0.682148    0.395001    0.209519     0.007504
AU730   AU        0.733209    0.360301    0.218544     0.007504
AU731   AU        0.722906    0.402604    0.240141     0.007504
AU732   AU        0.754659    0.369743    0.267108     0.007504
AU733   AU        0.763596    0.402605    0.215010     0.007504
AU734   AU        0.782955    0.360827    0.224145     0.007504
AU735   AU        0.786932    0.398008    0.257151     0.007504
NI736   NI        0.817463    0.353014    0.260923     0.004307
AU737   AU        0.089481    0.453932    0.237600     0.007504
NI738   NI        0.051008    0.440421    0.212806     0.004307
AU739   AU        0.082177    0.500796    0.249478     0.007504
AU740   AU        0.122708    0.435984    0.264702     0.007504
AU741   AU        0.101626    0.489551    0.206871     0.007504
AU742   AU        0.152025    0.427518    0.230779     0.007504
AU743   AU        0.129009    0.476110    0.243000     0.007504
AU744   AU        0.186166    0.432101    0.265816     0.007504
NI745   NI        0.174207    0.465977    0.230338     0.004307
NI746   NI        0.223611    0.436609    0.238436     0.004307
NI747   NI        0.220288    0.466077    0.276058     0.004307
NI748   NI        0.255269    0.441778    0.264778     0.004307
NI749   NI        0.243370    0.483526    0.234271     0.004307
NI750   NI        0.268183    0.429610    0.219530     0.004307
NI751   NI        0.282277    0.468984    0.227194     0.004307
NI752   NI        0.354211    0.463809    0.274090     0.004307
NI753   NI        0.324243    0.495275    0.234270     0.004307
NI754   NI        0.385993    0.436303    0.243618     0.004307
AU755   AU        0.336263    0.505158    0.285928     0.007504
NI756   NI        0.387806    0.443292    0.288856     0.004307
NI757   NI        0.377411    0.464002    0.213582     0.004307
NI758   NI        0.441251    0.424258    0.226093     0.004307
AU759   AU        0.397551    0.475717    0.250553     0.007504
NI760   NI        0.437318    0.474044    0.265608     0.004307
AU761   AU        0.470215    0.462812    0.227954     0.007504
NI762   NI        0.525126    0.434192    0.231936     0.004307
NI763   NI        0.500418    0.448011    0.265153     0.004307
NI764   NI        0.548743    0.439289    0.272230     0.004307
NI765   NI        0.532898    0.483335    0.230957     0.004307
NI766   NI        0.571169    0.454371    0.228838     0.004307
NI767   NI        0.573406    0.475135    0.265924     0.004307
NI768   NI        0.619484    0.456312    0.268669     0.004307
NI769   NI        0.609347    0.484260    0.223989     0.004307
NI770   NI        0.654376    0.426073    0.220561     0.004307
NI771   NI        0.655925    0.478099    0.243070     0.004307
NI772   NI        0.691918    0.439751    0.240028     0.004307
AU773   AU        0.695037    0.479764    0.213821     0.007504
AU774   AU        0.731831    0.443924    0.211337     0.007504
AU775   AU        0.731037    0.478477    0.248613     0.007504
AU776   AU        0.764575    0.442316    0.243401     0.007504
AU777   AU        0.767533    0.480804    0.212746     0.007504
NI778   NI        0.797047    0.431173    0.213652     0.004307
NI779   NI        0.798872    0.477314    0.249383     0.004307
NI780   NI        0.819876    0.394445    0.291396     0.004307
NI781   NI        0.040272    0.541465    0.267051     0.004307
NI782   NI        0.067893    0.527942    0.208532     0.004307
NI783   NI        0.087273    0.543188    0.254144     0.004307
AU784   AU        0.125493    0.510521    0.276861     0.007504
NI785   NI        0.103562    0.561551    0.213455     0.004307
AU786   AU        0.145723    0.513015    0.214566     0.007504
AU787   AU        0.143772    0.549859    0.249157     0.007504
AU788   AU        0.169949    0.507375    0.256389     0.007504
AU789   AU        0.181322    0.551396    0.215833     0.007504
AU790   AU        0.198787    0.508297    0.217770     0.007504
NI791   NI        0.217313    0.571243    0.254500     0.004307
NI792   NI        0.241220    0.523750    0.256782     0.004307
AU793   AU        0.258077    0.543370    0.206662     0.007504
NI794   NI        0.281351    0.511413    0.238095     0.004307
NI795   NI        0.261744    0.568082    0.275543     0.004307
AU796   AU        0.315956    0.534417    0.253666     0.007504
AU797   AU        0.344493    0.544357    0.218187     0.007504
AU798   AU        0.366470    0.508855    0.247596     0.007504
AU799   AU        0.364654    0.541874    0.283566     0.007504
AU800   AU        0.409418    0.526189    0.266633     0.007504
NI801   NI        0.410950    0.542864    0.223519     0.004307
AU802   AU        0.439090    0.500103    0.229917     0.007504
AU803   AU        0.459296    0.539394    0.266676     0.007504
AU804   AU        0.473443    0.495747    0.268484     0.007504
NI805   NI        0.495114    0.558934    0.237718     0.004307
AU806   AU        0.491586    0.509027    0.220824     0.007504
NI807   NI        0.506545    0.523524    0.270534     0.004307
NI808   NI        0.571545    0.527641    0.276082     0.004307
NI809   NI        0.530147    0.536524    0.228774     0.004307
NI810   NI        0.570888    0.507517    0.237135     0.004307
NI811   NI        0.560604    0.566940    0.253078     0.004307
NI812   NI        0.615277    0.510221    0.266597     0.004307
AU813   AU        0.617310    0.547050    0.207502     0.007504
AU814   AU        0.655824    0.514318    0.208764     0.007504
AU815   AU        0.649297    0.547775    0.246302     0.007504
AU816   AU        0.690704    0.510110    0.247963     0.007504
AU817   AU        0.690997    0.551100    0.215088     0.007504
AU818   AU        0.728925    0.516965    0.213843     0.007504
AU819   AU        0.721475    0.550432    0.254707     0.007504
AU820   AU        0.767465    0.517302    0.247880     0.007504
NI821   NI        0.750376    0.557349    0.221695     0.004307
NI822   NI        0.803032    0.510083    0.219954     0.004307
NI823   NI        0.799805    0.552207    0.246412     0.004307
NI824   NI        0.831876    0.498321    0.281197     0.004307
NI825   NI        0.063487    0.588501    0.252740     0.004307
AU826   AU        0.108016    0.584897    0.255540     0.007504
NI827   NI        0.103365    0.609896    0.219230     0.004307
AU828   AU        0.141493    0.588471    0.216361     0.007504
AU829   AU        0.142541    0.623045    0.252364     0.007504
AU830   AU        0.177116    0.588186    0.246672     0.007504
AU831   AU        0.174996    0.628795    0.217283     0.007504
AU832   AU        0.218716    0.584735    0.212487     0.007504
AU833   AU        0.216348    0.622170    0.244372     0.007504
NI834   NI        0.262124    0.587752    0.234055     0.004307
AU835   AU        0.250558    0.624743    0.211269     0.007504
AU836   AU        0.299776    0.569079    0.220210     0.007504
NI837   NI        0.293022    0.619062    0.239090     0.004307
NI838   NI        0.348836    0.574448    0.256178     0.004307
AU839   AU        0.334306    0.605879    0.218999     0.007504
AU840   AU        0.378263    0.579324    0.220831     0.007504
NI841   NI        0.369209    0.615450    0.248962     0.004307
AU842   AU        0.402269    0.568831    0.263149     0.007504
NI843   NI        0.399092    0.638863    0.223040     0.004307
AU844   AU        0.430498    0.590892    0.226241     0.007504
NI845   NI        0.451312    0.618426    0.256220     0.004307
NI846   NI        0.470762    0.582143    0.262116     0.004307
AU847   AU        0.467954    0.623941    0.215231     0.007504
NI848   NI        0.503921    0.592930    0.207609     0.004307
NI849   NI        0.497367    0.630378    0.255776     0.004307
NI850   NI        0.521283    0.588540    0.275014     0.004307
NI851   NI        0.543615    0.621081    0.209305     0.004307
NI852   NI        0.586588    0.585292    0.207088     0.004307
NI853   NI        0.577075    0.610349    0.243910     0.004307
NI854   NI        0.624162    0.594104    0.257334     0.004307
AU855   AU        0.619225    0.623036    0.219321     0.007504
AU856   AU        0.654612    0.585675    0.213771     0.007504
AU857   AU        0.659255    0.633337    0.261832     0.007504
AU858   AU        0.682826    0.580800    0.254805     0.007504
AU859   AU        0.692017    0.627206    0.224906     0.007504
AU860   AU        0.723995    0.591497    0.227816     0.007504
AU861   AU        0.731163    0.632641    0.257142     0.007504
NI862   NI        0.767524    0.595190    0.252743     0.004307
NI863   NI        0.750463    0.596108    0.190730     0.004307
NI864   NI        0.796624    0.619078    0.288645     0.004307
NI865   NI        0.092625    0.628372    0.260608     0.004307
NI866   NI        0.141420    0.656650    0.214074     0.004307
NI867   NI        0.123692    0.666932    0.261463     0.004307
AU868   AU        0.172588    0.663465    0.256303     0.007504
NI869   NI        0.173234    0.693694    0.218972     0.004307
AU870   AU        0.212488    0.662154    0.222536     0.007504
AU871   AU        0.207987    0.699466    0.255505     0.007504
AU872   AU        0.256520    0.653681    0.247474     0.007504
AU873   AU        0.251990    0.695895    0.224110     0.007504
AU874   AU        0.285940    0.659980    0.207392     0.007504
AU875   AU        0.293202    0.690457    0.248008     0.007504
AU876   AU        0.328740    0.655231    0.243413     0.007504
AU877   AU        0.321192    0.698103    0.209897     0.007504
NI878   NI        0.361944    0.669015    0.214950     0.004307
AU879   AU        0.356235    0.700591    0.250072     0.007504
NI880   NI        0.390814    0.666551    0.263126     0.004307
AU881   AU        0.396606    0.696752    0.220033     0.007504
AU882   AU        0.435969    0.662239    0.217561     0.007504
AU883   AU        0.432046    0.693443    0.258919     0.007504
NI884   NI        0.462669    0.660060    0.260940     0.004307
AU885   AU        0.473334    0.695318    0.219641     0.007504
NI886   NI        0.509204    0.646085    0.217308     0.004307
AU887   AU        0.506806    0.680248    0.250980     0.007504
AU888   AU        0.542574    0.645945    0.247343     0.007504
AU889   AU        0.551083    0.693188    0.224276     0.007504
AU890   AU        0.584815    0.657534    0.218391     0.007504
AU891   AU        0.591144    0.692097    0.258036     0.007504
AU892   AU        0.622055    0.657991    0.253203     0.007504
AU893   AU        0.624751    0.698090    0.219120     0.007504
AU894   AU        0.656168    0.664198    0.221758     0.007504
AU895   AU        0.655219    0.696098    0.259472     0.007504
AU896   AU        0.696118    0.668140    0.255449     0.007504
NI897   NI        0.670142    0.714485    0.223929     0.004307
NI898   NI        0.743956    0.637251    0.208756     0.004307
NI899   NI        0.735148    0.687847    0.260705     0.004307
NI900   NI        0.777834    0.640020    0.252843     0.004307
NI901   NI        0.208920    0.777159    0.248738     0.004307
NI902   NI        0.211550    0.732123    0.213871     0.004307
NI903   NI        0.243695    0.785237    0.271454     0.004307
AU904   AU        0.241616    0.738246    0.255022     0.007504
NI905   NI        0.245588    0.773766    0.215994     0.004307
AU906   AU        0.282822    0.735220    0.222155     0.007504
AU907   AU        0.286037    0.768221    0.249553     0.007504
AU908   AU        0.318272    0.731255    0.248201     0.007504
AU909   AU        0.325168    0.769759    0.215938     0.007504
AU910   AU        0.359600    0.734873    0.216691     0.007504
AU911   AU        0.360232    0.758890    0.252953     0.007504
AU912   AU        0.396752    0.728708    0.254930     0.007504
AU913   AU        0.399147    0.759298    0.217702     0.007504
AU914   AU        0.435573    0.725186    0.221887     0.007504
AU915   AU        0.435164    0.756330    0.255302     0.007504
AU916   AU        0.470746    0.717411    0.257706     0.007504
AU917   AU        0.474116    0.759467    0.224598     0.007504
AU918   AU        0.512814    0.723661    0.227668     0.007504
AU919   AU        0.514547    0.762676    0.245354     0.007504
AU920   AU        0.552473    0.731881    0.249681     0.007504
AU921   AU        0.560953    0.770661    0.220235     0.007504
AU922   AU        0.589401    0.728877    0.223246     0.007504
AU923   AU        0.591019    0.764935    0.259531     0.007504
AU924   AU        0.628445    0.729823    0.254611     0.007504
NI925   NI        0.607861    0.788235    0.220882     0.004307
NI926   NI        0.632965    0.746728    0.206821     0.004307
NI927   NI        0.632268    0.770816    0.265500     0.004307
NI928   NI        0.682206    0.738693    0.255881     0.004307
NI929   NI        0.278866    0.813786    0.247794     0.004307
NI930   NI        0.327660    0.793807    0.249669     0.004307
NI931   NI        0.362864    0.795728    0.221750     0.004307
NI932   NI        0.364206    0.828629    0.258467     0.004307
AU933   AU        0.398269    0.790045    0.255052     0.007504
AU934   AU        0.437507    0.790981    0.222758     0.007504
NI935   NI        0.424199    0.831201    0.255257     0.004307
NI936   NI        0.475134    0.796109    0.248885     0.004307
NI937   NI        0.526830    0.806272    0.225816     0.004307
NI938   NI        0.545921    0.841765    0.326679     0.004307
NI939   NI        0.558269    0.802458    0.262957     0.004307
NI940   NI        0.603188    0.797921    0.290203     0.004307
NI941   NI        0.312119    0.050794    0.323385     0.004307
NI942   NI        0.354356    0.044886    0.290809     0.004307
NI943   NI        0.366665    0.052711    0.335649     0.004307
NI944   NI        0.408273    0.050640    0.298059     0.004307
NI945   NI        0.410013    0.042603    0.342047     0.004307
NI946   NI        0.461671    0.045368    0.286395     0.004307
NI947   NI        0.486895    0.038561    0.325277     0.004307
NI948   NI        0.542623    0.047766    0.322903     0.004307
NI949   NI        0.591654    0.061428    0.328614     0.004307
NI950   NI        0.210324    0.117228    0.315381     0.004307
AU951   AU        0.257132    0.114092    0.352388     0.007504
NI952   NI        0.278460    0.078644    0.327282     0.004307
AU953   AU        0.255386    0.113819    0.300316     0.007504
NI954   NI        0.320560    0.073852    0.282581     0.004307
AU955   AU        0.293665    0.121786    0.327842     0.007504
AU956   AU        0.335712    0.092355    0.332446     0.007504
AU957   AU        0.319742    0.115239    0.287746     0.007504
AU958   AU        0.369318    0.094659    0.296239     0.007504
AU959   AU        0.370294    0.125897    0.334967     0.007504
AU960   AU        0.401864    0.086975    0.335230     0.007504
AU961   AU        0.405388    0.128296    0.297234     0.007504
AU962   AU        0.435899    0.087807    0.300009     0.007504
AU963   AU        0.437949    0.121861    0.340080     0.007504
AU964   AU        0.471039    0.083005    0.340448     0.007504
AU965   AU        0.474456    0.121791    0.302807     0.007504
AU966   AU        0.508919    0.085205    0.299217     0.007504
AU967   AU        0.508180    0.118509    0.338520     0.007504
AU968   AU        0.549997    0.089816    0.331138     0.007504
AU969   AU        0.547092    0.125129    0.300024     0.007504
AU970   AU        0.586026    0.092942    0.290012     0.007504
AU971   AU        0.588911    0.121181    0.329186     0.007504
NI972   NI        0.631313    0.088937    0.334159     0.004307
AU973   AU        0.633677    0.112971    0.295359     0.007504
AU974   AU        0.661843    0.122526    0.334384     0.007504
NI975   NI        0.677731    0.134817    0.285938     0.004307
NI976   NI        0.140231    0.180119    0.280885     0.004307
NI977   NI        0.196389    0.158479    0.333209     0.004307
NI978   NI        0.155487    0.161286    0.322856     0.004307
NI979   NI        0.195778    0.124514    0.365447     0.004307
AU980   AU        0.187524    0.187202    0.288400     0.007504
AU981   AU        0.222090    0.150559    0.292929     0.007504
AU982   AU        0.220726    0.191822    0.324083     0.007504
AU983   AU        0.257364    0.154774    0.328111     0.007504
AU984   AU        0.254273    0.190195    0.288067     0.007504
AU985   AU        0.286490    0.151475    0.288183     0.007504
AU986   AU        0.291999    0.187268    0.325825     0.007504
AU987   AU        0.325049    0.151034    0.325003     0.007504
AU988   AU        0.322823    0.182878    0.287988     0.007504
AU989   AU        0.355092    0.142844    0.287047     0.007504
NI990   NI        0.361837    0.177748    0.328141     0.004307
AU991   AU        0.406893    0.160156    0.339327     0.007504
AU992   AU        0.392238    0.176207    0.291162     0.007504
AU993   AU        0.443815    0.163343    0.304202     0.007504
AU994   AU        0.444684    0.194377    0.344005     0.007504
AU995   AU        0.476562    0.156192    0.341121     0.007504
AU996   AU        0.478728    0.195358    0.308109     0.007504
AU997   AU        0.510256    0.158191    0.304519     0.007504
AU998   AU        0.516592    0.192268    0.345845     0.007504
AU999   AU        0.546528    0.150839    0.341736     0.007504
AU1000   AU        0.559221    0.176229    0.298452     0.007504
AU1001   AU        0.595062    0.142496    0.284023     0.007504
AU1002   AU        0.587459    0.183497    0.334665     0.007504
AU1003   AU        0.622598    0.151616    0.327771     0.007504
AU1004   AU        0.606485    0.193550    0.288669     0.007504
AU1005   AU        0.642584    0.160077    0.289830     0.007504
AU1006   AU        0.637385    0.194764    0.325857     0.007504
AU1007   AU        0.679860    0.169147    0.322883     0.007504
AU1008   AU        0.675689    0.194967    0.287713     0.007504
NI1009   NI        0.721625    0.184239    0.324703     0.004307
NI1010   NI        0.751457    0.155103    0.332947     0.004307
NI1011   NI        0.761669    0.217839    0.280782     0.004307
NI1012   NI        0.080898    0.251479    0.323280     0.004307
NI1013   NI        0.117321    0.202901    0.322907     0.004307
NI1014   NI        0.107012    0.260780    0.283721     0.004307
AU1015   AU        0.141637    0.223973    0.283008     0.007504
AU1016   AU        0.141521    0.245142    0.327904     0.007504
AU1017   AU        0.170191    0.207984    0.322524     0.007504
AU1018   AU        0.177077    0.249138    0.297477     0.007504
AU1019   AU        0.220189    0.227899    0.291304     0.007504
NI1020   NI        0.216704    0.263479    0.326150     0.004307
AU1021   AU        0.259059    0.224942    0.327660     0.007504
NI1022   NI        0.255737    0.262354    0.292267     0.004307
AU1023   AU        0.291979    0.223237    0.290723     0.007504
AU1024   AU        0.296459    0.257815    0.321908     0.007504
NI1025   NI        0.338082    0.218812    0.333504     0.004307
AU1026   AU        0.337309    0.246919    0.301405     0.007504
NI1027   NI        0.376948    0.219138    0.315878     0.004307
AU1028   AU        0.370303    0.260893    0.337242     0.007504
AU1029   AU        0.410807    0.235280    0.345982     0.007504
NI1030   NI        0.408090    0.249166    0.303190     0.004307
NI1031   NI        0.424297    0.204078    0.307594     0.004307
AU1032   AU        0.446834    0.266576    0.310502     0.007504
AU1033   AU        0.482934    0.230026    0.348511     0.007504
NI1034   NI        0.488430    0.303293    0.281870     0.004307
NI1035   NI        0.495932    0.251428    0.304759     0.004307
AU1036   AU        0.528479    0.250371    0.340863     0.007504
NI1037   NI        0.553580    0.215983    0.324308     0.004307
NI1038   NI        0.568056    0.261813    0.308474     0.004307
AU1039   AU        0.571298    0.226582    0.281103     0.007504
NI1040   NI        0.578340    0.252847    0.348314     0.004307
NI1041   NI        0.607337    0.230489    0.325109     0.004307
AU1042   AU        0.606377    0.266365    0.284654     0.007504
AU1043   AU        0.642291    0.229502    0.286983     0.007504
NI1044   NI        0.645547    0.262654    0.325372     0.004307
AU1045   AU        0.677198    0.228333    0.326714     0.007504
AU1046   AU        0.677838    0.269221    0.293321     0.007504
AU1047   AU        0.710114    0.224801    0.297604     0.007504
AU1048   AU        0.709572    0.265609    0.331120     0.007504
NI1049   NI        0.756495    0.213663    0.325191     0.004307
AU1050   AU        0.745237    0.256546    0.304648     0.007504
NI1051   NI        0.786266    0.257342    0.330448     0.004307
NI1052   NI        0.059541    0.290866    0.345907     0.004307
NI1053   NI        0.037866    0.339318    0.298826     0.004307
NI1054   NI        0.081874    0.303556    0.297811     0.004307
AU1055   AU        0.081575    0.325852    0.335955     0.007504
AU1056   AU        0.116676    0.290244    0.333266     0.007504
AU1057   AU        0.118515    0.326184    0.295624     0.007504
AU1058   AU        0.141906    0.284990    0.295395     0.007504
AU1059   AU        0.153407    0.322200    0.329068     0.007504
NI1060   NI        0.179755    0.291718    0.329701     0.004307
NI1061   NI        0.182507    0.319137    0.299644     0.004307
NI1062   NI        0.219124    0.294654    0.291421     0.004307
NI1063   NI        0.213197    0.339354    0.328341     0.004307
NI1064   NI        0.287970    0.305904    0.317248     0.004307
NI1065   NI        0.260838    0.323225    0.283412     0.004307
NI1066   NI        0.303937    0.286401    0.281459     0.004307
NI1067   NI        0.257865    0.355648    0.310813     0.004307
AU1068   AU        0.332619    0.292091    0.321064     0.007504
NI1069   NI        0.353119    0.320856    0.292449     0.004307
NI1070   NI        0.374336    0.279484    0.297275     0.004307
NI1071   NI        0.369560    0.345222    0.331773     0.004307
NI1072   NI        0.409259    0.287944    0.339680     0.004307
NI1073   NI        0.399972    0.322342    0.300175     0.004307
NI1074   NI        0.442526    0.314518    0.281723     0.004307
NI1075   NI        0.447306    0.312047    0.331039     0.004307
NI1076   NI        0.484400    0.293934    0.327736     0.004307
NI1077   NI        0.478458    0.345821    0.269741     0.004307
AU1078   AU        0.529616    0.280951    0.303557     0.007504
NI1079   NI        0.517948    0.315867    0.338966     0.004307
AU1080   AU        0.560511    0.291825    0.341231     0.007504
NI1081   NI        0.497340    0.338933    0.308196     0.004307
NI1082   NI        0.572841    0.306066    0.298328     0.004307
NI1083   NI        0.577919    0.342894    0.341478     0.004307
NI1084   NI        0.614535    0.293623    0.322208     0.004307
NI1085   NI        0.613691    0.343900    0.302571     0.004307
NI1086   NI        0.640289    0.301307    0.283701     0.004307
NI1087   NI        0.657017    0.343806    0.303203     0.004307
AU1088   AU        0.676472    0.303580    0.329735     0.007504
NI1089   NI        0.699689    0.354099    0.287784     0.004307
AU1090   AU        0.715275    0.303833    0.296412     0.007504
AU1091   AU        0.712253    0.339691    0.332327     0.007504
AU1092   AU        0.747314    0.297773    0.335510     0.007504
AU1093   AU        0.755608    0.333778    0.301148     0.007504
AU1094   AU        0.792017    0.299533    0.313067     0.007504
AU1095   AU        0.785085    0.336340    0.340197     0.007504
NI1096   NI        0.833454    0.305597    0.355209     0.004307
NI1097   NI        0.869544    0.332164    0.344609     0.004307
AU1098   AU        0.070536    0.402816    0.326822     0.007504
NI1099   NI        0.031633    0.405316    0.295300     0.004307
NI1100   NI        0.082341    0.362152    0.299431     0.004307
AU1101   AU        0.056891    0.444437    0.315029     0.007504
AU1102   AU        0.119437    0.361362    0.332919     0.007504
AU1103   AU        0.120137    0.394162    0.297368     0.007504
AU1104   AU        0.156059    0.357602    0.294093     0.007504
AU1105   AU        0.146526    0.404351    0.337215     0.007504
AU1106   AU        0.174704    0.366079    0.342126     0.007504
AU1107   AU        0.186346    0.400503    0.304487     0.007504
NI1108   NI        0.229474    0.361596    0.276926     0.004307
AU1109   AU        0.221811    0.396235    0.339277     0.007504
NI1110   NI        0.268734    0.401131    0.340652     0.004307
NI1111   NI        0.255500    0.399145    0.296444     0.004307
AU1112   AU        0.302826    0.380637    0.299088     0.007504
NI1113   NI        0.287510    0.442801    0.312121     0.004307
NI1114   NI        0.322736    0.342147    0.314310     0.004307
AU1115   AU        0.332971    0.422545    0.299998     0.007504
AU1116   AU        0.352437    0.376866    0.295905     0.007504
NI1117   NI        0.377468    0.407501    0.324349     0.004307
NI1118   NI        0.405130    0.367716    0.320886     0.004307
NI1119   NI        0.377079    0.403061    0.270993     0.004307
NI1120   NI        0.438795    0.371001    0.298919     0.004307
NI1121   NI        0.438943    0.412966    0.323064     0.004307
NI1122   NI        0.470919    0.355311    0.339472     0.004307
NI1123   NI        0.472020    0.424810    0.297928     0.004307
NI1124   NI        0.480258    0.376748    0.304548     0.004307
NI1125   NI        0.506819    0.382668    0.339047     0.004307
NI1126   NI        0.540846    0.361413    0.319401     0.004307
NI1127   NI        0.541382    0.411407    0.311510     0.004307
NI1128   NI        0.559107    0.342264    0.284513     0.004307
NI1129   NI        0.568136    0.410392    0.346833     0.004307
AU1130   AU        0.606094    0.379083    0.347796     0.007504
NI1131   NI        0.587731    0.401906    0.310845     0.004307
NI1132   NI        0.627701    0.385215    0.302839     0.004307
NI1133   NI        0.669277    0.418135    0.327533     0.004307
NI1134   NI        0.692899    0.378285    0.339853     0.004307
NI1135   NI        0.691259    0.404333    0.280045     0.004307
AU1136   AU        0.732291    0.378335    0.306464     0.007504
NI1137   NI        0.713129    0.418278    0.321054     0.004307
AU1138   AU        0.752362    0.366902    0.344056     0.007504
AU1139   AU        0.746161    0.419847    0.282488     0.007504
AU1140   AU        0.785088    0.372084    0.309143     0.007504
AU1141   AU        0.766912    0.414265    0.329941     0.007504
NI1142   NI        0.829197    0.339029    0.308627     0.004307
NI1143   NI        0.844051    0.383260    0.329165     0.004307
NI1144   NI        0.015914    0.469420    0.313946     0.004307
NI1145   NI        0.050649    0.473942    0.273972     0.004307
AU1146   AU        0.082095    0.424253    0.282200     0.007504
AU1147   AU        0.078829    0.481294    0.329217     0.007504
AU1148   AU        0.105030    0.439758    0.324961     0.007504
AU1149   AU        0.093811    0.470958    0.287861     0.007504
AU1150   AU        0.149137    0.433501    0.300015     0.007504
NI1151   NI        0.139374    0.475393    0.312205     0.004307
AU1152   AU        0.173070    0.445738    0.341981     0.007504
AU1153   AU        0.179007    0.475725    0.291089     0.007504
NI1154   NI        0.205114    0.442957    0.306424     0.004307
NI1155   NI        0.211576    0.475897    0.347911     0.004307
NI1156   NI        0.236448    0.444006    0.337544     0.004307
NI1157   NI        0.252692    0.485880    0.289531     0.004307
NI1158   NI        0.304466    0.462362    0.262261     0.004307
NI1159   NI        0.288790    0.498285    0.310617     0.004307
NI1160   NI        0.344140    0.438952    0.340111     0.004307
AU1161   AU        0.326594    0.474959    0.322601     0.007504
NI1162   NI        0.369754    0.470097    0.319160     0.004307
NI1163   NI        0.355275    0.480517    0.360058     0.004307
NI1164   NI        0.396019    0.442623    0.339175     0.004307
AU1165   AU        0.386775    0.498767    0.291437     0.007504
NI1166   NI        0.437461    0.433646    0.271821     0.004307
NI1167   NI        0.427061    0.468473    0.311125     0.004307
NI1168   NI        0.483190    0.429930    0.342267     0.004307
NI1169   NI        0.479463    0.467877    0.302590     0.004307
NI1170   NI        0.523988    0.452355    0.310239     0.004307
NI1171   NI        0.508833    0.473555    0.344030     0.004307
NI1172   NI        0.556767    0.464085    0.348261     0.004307
NI1173   NI        0.524907    0.479700    0.275262     0.004307
NI1174   NI        0.576709    0.455296    0.308454     0.004307
NI1175   NI        0.596256    0.483596    0.343525     0.004307
NI1176   NI        0.615947    0.433524    0.318689     0.004307
NI1177   NI        0.624600    0.475539    0.308601     0.004307
NI1178   NI        0.654025    0.421544    0.275906     0.004307
NI1179   NI        0.659770    0.453389    0.308669     0.004307
NI1180   NI        0.694504    0.458266    0.335376     0.004307
NI1181   NI        0.696448    0.485252    0.289228     0.004307
NI1182   NI        0.709448    0.444414    0.283007     0.004307
NI1183   NI        0.734402    0.480790    0.310583     0.004307
AU1184   AU        0.782645    0.463459    0.321918     0.007504
NI1185   NI        0.764077    0.469343    0.275530     0.004307
AU1186   AU        0.792011    0.429446    0.296283     0.007504
NI1187   NI        0.825590    0.470940    0.314573     0.004307
AU1188   AU        0.812469    0.430102    0.340726     0.007504
NI1189   NI        0.841286    0.437244    0.293369     0.004307
NI1190   NI        0.039065    0.506244    0.310338     0.004307
NI1191   NI        0.043436    0.552123    0.317157     0.004307
AU1192   AU        0.077742    0.518629    0.297293     0.007504
AU1193   AU        0.085210    0.546966    0.330635     0.007504
AU1194   AU        0.115805    0.515157    0.328726     0.007504
AU1195   AU        0.118860    0.552235    0.291737     0.007504
AU1196   AU        0.161642    0.522241    0.302308     0.007504
AU1197   AU        0.140282    0.557102    0.329582     0.007504
NI1198   NI        0.177066    0.500696    0.335091     0.004307
AU1199   AU        0.182416    0.552326    0.279766     0.007504
AU1200   AU        0.208387    0.510632    0.292092     0.007504
NI1201   NI        0.204076    0.532632    0.336528     0.004307
NI1202   NI        0.253751    0.491383    0.340060     0.004307
NI1203   NI        0.241290    0.529287    0.314403     0.004307
NI1204   NI        0.277239    0.530630    0.288311     0.004307
NI1205   NI        0.276918    0.547407    0.331127     0.004307
AU1206   AU        0.322318    0.538309    0.316929     0.007504
NI1207   NI        0.309633    0.574670    0.276079     0.004307
AU1208   AU        0.358964    0.514117    0.328330     0.007504
AU1209   AU        0.360053    0.568846    0.327656     0.007504
AU1210   AU        0.401533    0.498887    0.338888     0.007504
AU1211   AU        0.398879    0.542489    0.312855     0.007504
AU1212   AU        0.435711    0.515931    0.302274     0.007504
AU1213   AU        0.439186    0.534683    0.342768     0.007504
NI1214   NI        0.465324    0.499117    0.328099     0.004307
AU1215   AU        0.479362    0.540072    0.314660     0.007504
NI1216   NI        0.502949    0.502986    0.307050     0.004307
NI1217   NI        0.505497    0.531026    0.354092     0.004307
NI1218   NI        0.551609    0.505551    0.311807     0.004307
NI1219   NI        0.519514    0.546089    0.307336     0.004307
NI1220   NI        0.594365    0.512233    0.308469     0.004307
NI1221   NI        0.566080    0.554023    0.313077     0.004307
NI1222   NI        0.609358    0.551071    0.323653     0.004307
NI1223   NI        0.603819    0.552927    0.275091     0.004307
NI1224   NI        0.643181    0.515011    0.304197     0.004307
NI1225   NI        0.632786    0.535004    0.360604     0.004307
NI1226   NI        0.664323    0.559359    0.342993     0.004307
NI1227   NI        0.675443    0.538215    0.287834     0.004307
NI1228   NI        0.733217    0.513735    0.278337     0.004307
AU1229   AU        0.716187    0.547465    0.303523     0.007504
AU1230   AU        0.754849    0.529161    0.324234     0.007504
AU1231   AU        0.763870    0.554723    0.280703     0.007504
AU1232   AU        0.784925    0.506797    0.292747     0.007504
AU1233   AU        0.790267    0.564589    0.321613     0.007504
AU1234   AU        0.813574    0.486915    0.352727     0.007504
NI1235   NI        0.816970    0.533398    0.301186     0.004307
NI1236   NI        0.056176    0.596133    0.321258     0.004307
NI1237   NI        0.075076    0.563708    0.288313     0.004307
NI1238   NI        0.081799    0.630621    0.329279     0.004307
AU1239   AU        0.107791    0.589141    0.320685     0.007504
NI1240   NI        0.117411    0.627683    0.293785     0.004307
AU1241   AU        0.147986    0.590265    0.285975     0.007504
AU1242   AU        0.158351    0.604594    0.332432     0.007504
NI1243   NI        0.192842    0.569778    0.354094     0.004307
AU1244   AU        0.180314    0.624132    0.283061     0.007504
NI1245   NI        0.200201    0.588709    0.310572     0.004307
AU1246   AU        0.213311    0.639931    0.317696     0.007504
NI1247   NI        0.239144    0.571545    0.341866     0.004307
NI1248   NI        0.254260    0.613365    0.276516     0.004307
NI1249   NI        0.299744    0.621947    0.282564     0.004307
NI1250   NI        0.271832    0.588488    0.314892     0.004307
AU1251   AU        0.313459    0.578413    0.343963     0.007504
NI1252   NI        0.340022    0.641615    0.283227     0.004307
NI1253   NI        0.367521    0.599065    0.290506     0.004307
NI1254   NI        0.342134    0.616351    0.322090     0.004307
NI1255   NI        0.419321    0.579300    0.343638     0.004307
NI1256   NI        0.453362    0.615856    0.304655     0.004307
AU1257   AU        0.436824    0.566429    0.304012     0.007504
NI1258   NI        0.445894    0.616406    0.348470     0.004307
NI1259   NI        0.465503    0.576127    0.344264     0.004307
NI1260   NI        0.494422    0.640410    0.296711     0.004307
AU1261   AU        0.487334    0.587681    0.308302     0.007504
NI1262   NI        0.484157    0.624151    0.336393     0.004307
NI1263   NI        0.524941    0.571524    0.345030     0.004307
NI1264   NI        0.528651    0.606027    0.315157     0.004307
NI1265   NI        0.561870    0.593032    0.291256     0.004307
NI1266   NI        0.604833    0.618229    0.340796     0.004307
NI1267   NI        0.605116    0.592586    0.303978     0.004307
AU1268   AU        0.623265    0.633652    0.297398     0.007504
NI1269   NI        0.653128    0.596571    0.292566     0.004307
NI1270   NI        0.667300    0.628903    0.325838     0.004307
NI1271   NI        0.693119    0.580364    0.323560     0.004307
AU1272   AU        0.692353    0.619997    0.285508     0.007504
AU1273   AU        0.726021    0.589687    0.285824     0.007504
AU1274   AU        0.717989    0.620517    0.328637     0.007504
AU1275   AU        0.743099    0.576244    0.324140     0.007504
AU1276   AU        0.754946    0.626432    0.305250     0.007504
NI1277   NI        0.810206    0.576793    0.278875     0.004307
NI1278   NI        0.798804    0.634601    0.331855     0.004307
NI1279   NI        0.830581    0.596321    0.319773     0.004307
AU1280   AU        0.125802    0.635283    0.339714     0.007504
NI1281   NI        0.106306    0.670867    0.313324     0.004307
AU1282   AU        0.151898    0.651955    0.303648     0.007504
AU1283   AU        0.138280    0.687049    0.339675     0.007504
AU1284   AU        0.172795    0.650096    0.345036     0.007504
AU1285   AU        0.189633    0.683446    0.302510     0.007504
AU1286   AU        0.221370    0.656998    0.273947     0.007504
AU1287   AU        0.237192    0.684062    0.317722     0.007504
NI1288   NI        0.258269    0.643350    0.343822     0.004307
AU1289   AU        0.254110    0.695791    0.275157     0.007504
AU1290   AU        0.262785    0.648456    0.300595     0.007504
AU1291   AU        0.284992    0.698247    0.321147     0.007504
NI1292   NI        0.328748    0.666999    0.329836     0.004307
AU1293   AU        0.322440    0.698053    0.288933     0.007504
NI1294   NI        0.370993    0.660684    0.304668     0.004307
AU1295   AU        0.372603    0.695931    0.336789     0.007504
NI1296   NI        0.404205    0.614919    0.316529     0.004307
AU1297   AU        0.400552    0.701650    0.296976     0.007504
NI1298   NI        0.421645    0.651106    0.289024     0.004307
NI1299   NI        0.440449    0.691863    0.320979     0.004307
NI1300   NI        0.478907    0.665380    0.345502     0.004307
NI1301   NI        0.477147    0.685957    0.292712     0.004307
NI1302   NI        0.539111    0.644955    0.299236     0.004307
NI1303   NI        0.519368    0.682993    0.314615     0.004307
NI1304   NI        0.560082    0.638784    0.343463     0.004307
NI1305   NI        0.552103    0.685108    0.276326     0.004307
NI1306   NI        0.583153    0.641762    0.274488     0.004307
NI1307   NI        0.577498    0.678586    0.310798     0.004307
NI1308   NI        0.626519    0.665033    0.327982     0.004307
AU1309   AU        0.623469    0.701252    0.298816     0.007504
AU1310   AU        0.666350    0.666642    0.297138     0.007504
AU1311   AU        0.661785    0.705106    0.332074     0.007504
AU1312   AU        0.702555    0.665839    0.343997     0.007504
AU1313   AU        0.693241    0.706702    0.290119     0.007504
AU1314   AU        0.718923    0.662819    0.297921     0.007504
AU1315   AU        0.729397    0.704380    0.325335     0.007504
AU1316   AU        0.751292    0.659950    0.336500     0.007504
NI1317   NI        0.764281    0.688730    0.298466     0.004307
NI1318   NI        0.144213    0.694218    0.288481     0.004307
AU1319   AU        0.176974    0.720317    0.333446     0.007504
NI1320   NI        0.185077    0.756755    0.278041     0.004307
AU1321   AU        0.217874    0.726689    0.296631     0.007504
NI1322   NI        0.203693    0.764080    0.329873     0.004307
AU1323   AU        0.251457    0.729039    0.336463     0.007504
AU1324   AU        0.249508    0.765118    0.311308     0.007504
AU1325   AU        0.283700    0.732201    0.283725     0.007504
AU1326   AU        0.291924    0.753870    0.328232     0.007504
AU1327   AU        0.330173    0.722154    0.331331     0.007504
AU1328   AU        0.321868    0.763990    0.285686     0.007504
AU1329   AU        0.360449    0.735990    0.292038     0.007504
AU1330   AU        0.366799    0.763135    0.331496     0.007504
AU1331   AU        0.406752    0.732015    0.336885     0.007504
AU1332   AU        0.399163    0.756868    0.294586     0.007504
AU1333   AU        0.438099    0.736718    0.296518     0.007504
AU1334   AU        0.443804    0.764955    0.340284     0.007504
NI1335   NI        0.476321    0.722422    0.310213     0.004307
AU1336   AU        0.478585    0.760543    0.280008     0.007504
AU1337   AU        0.513659    0.723678    0.279658     0.007504
AU1338   AU        0.515734    0.758820    0.312501     0.007504
NI1339   NI        0.541243    0.723031    0.372326     0.004307
AU1340   AU        0.550391    0.761908    0.281473     0.007504
AU1341   AU        0.582641    0.725771    0.289961     0.007504
NI1342   NI        0.559116    0.723644    0.325925     0.004307
NI1343   NI        0.598708    0.708372    0.334373     0.004307
AU1344   AU        0.615548    0.750105    0.302953     0.007504
AU1345   AU        0.655259    0.736514    0.294777     0.007504
AU1346   AU        0.648849    0.769204    0.331578     0.007504
AU1347   AU        0.691109    0.737165    0.331525     0.007504
NI1348   NI        0.679844    0.772875    0.291806     0.004307
NI1349   NI        0.729766    0.731085    0.286047     0.004307
NI1350   NI        0.284890    0.824058    0.323521     0.004307
NI1351   NI        0.287378    0.791866    0.291404     0.004307
NI1352   NI        0.320114    0.852271    0.329374     0.004307
AU1353   AU        0.324084    0.791226    0.326206     0.007504
NI1354   NI        0.329073    0.824827    0.298897     0.004307
AU1355   AU        0.362080    0.788346    0.288895     0.007504
NI1356   NI        0.363723    0.824821    0.325429     0.004307
AU1357   AU        0.401141    0.793000    0.330211     0.007504
NI1358   NI        0.402149    0.821049    0.294752     0.004307
AU1359   AU        0.435937    0.785151    0.291698     0.007504
AU1360   AU        0.439835    0.814253    0.330321     0.007504
AU1361   AU        0.478714    0.788906    0.322467     0.007504
NI1362   NI        0.471388    0.820988    0.292636     0.004307
AU1363   AU        0.513311    0.796866    0.277609     0.007504
AU1364   AU        0.481320    0.837921    0.333850     0.007504
AU1365   AU        0.520081    0.807189    0.331553     0.007504
NI1366   NI        0.522858    0.840965    0.287173     0.004307
AU1367   AU        0.555198    0.796740    0.308480     0.007504
AU1368   AU        0.566742    0.817684    0.355054     0.007504
NI1369   NI        0.590350    0.830353    0.315300     0.004307
NI1370   NI        0.266654    0.032508    0.348744     0.004307
NI1371   NI        0.261098    0.039072    0.414275     0.004307
NI1372   NI        0.385351    0.009997    0.321287     0.004307
NI1373   NI        0.361837    0.028736    0.381279     0.004307
NI1374   NI        0.369866    0.031710    0.420809     0.004307
AU1375   AU        0.408005    0.041292    0.390533     0.007504
NI1376   NI        0.444536    0.017193    0.327541     0.004307
AU1377   AU        0.453104    0.048916    0.413672     0.007504
NI1378   NI        0.492348    0.026642    0.389099     0.004307
AU1379   AU        0.454269    0.039395    0.362351     0.007504
NI1380   NI        0.540095    0.026721    0.389674     0.004307
NI1381   NI        0.565316    0.050913    0.357930     0.004307
NI1382   NI        0.581260    0.055736    0.404543     0.004307
NI1383   NI        0.621502    0.028187    0.405495     0.004307
NI1384   NI        0.171155    0.111552    0.399189     0.004307
NI1385   NI        0.216227    0.045456    0.443637     0.004307
NI1386   NI        0.232996    0.075741    0.338758     0.004307
NI1387   NI        0.251527    0.074104    0.377516     0.004307
AU1388   AU        0.237537    0.116988    0.398118     0.007504
NI1389   NI        0.276953    0.081195    0.410559     0.004307
AU1390   AU        0.298003    0.090347    0.365684     0.007504
NI1391   NI        0.332904    0.047966    0.360202     0.004307
AU1392   AU        0.296924    0.118582    0.404113     0.007504
AU1393   AU        0.328147    0.079728    0.412343     0.007504
AU1394   AU        0.330247    0.124420    0.366391     0.007504
AU1395   AU        0.365459    0.086156    0.370858     0.007504
AU1396   AU        0.359011    0.120648    0.408208     0.007504
AU1397   AU        0.396971    0.086776    0.411994     0.007504
AU1398   AU        0.403900    0.120971    0.375774     0.007504
AU1399   AU        0.433537    0.082535    0.378144     0.007504
AU1400   AU        0.436580    0.119321    0.412123     0.007504
AU1401   AU        0.484426    0.071786    0.388701     0.007504
AU1402   AU        0.473026    0.116597    0.377068     0.007504
AU1403   AU        0.515409    0.059156    0.354376     0.007504
AU1404   AU        0.509975    0.114875    0.412428     0.007504
AU1405   AU        0.531353    0.073765    0.404820     0.007504
AU1406   AU        0.543959    0.115247    0.376323     0.007504
AU1407   AU        0.585764    0.087788    0.367517     0.007504
AU1408   AU        0.586255    0.117462    0.405386     0.007504
AU1409   AU        0.620803    0.084940    0.402900     0.007504
AU1410   AU        0.622449    0.119927    0.366873     0.007504
NI1411   NI        0.695409    0.114760    0.367801     0.004307
AU1412   AU        0.659545    0.115811    0.402754     0.007504
NI1413   NI        0.661252    0.075993    0.377884     0.004307
NI1414   NI        0.706324    0.126500    0.322244     0.004307
NI1415   NI        0.711301    0.116241    0.404937     0.004307
NI1416   NI        0.075459    0.212101    0.362251     0.004307
NI1417   NI        0.073116    0.172464    0.387972     0.004307
NI1418   NI        0.120599    0.175719    0.377140     0.004307
NI1419   NI        0.161369    0.150115    0.362812     0.004307
AU1420   AU        0.148169    0.175004    0.422865     0.007504
AU1421   AU        0.189308    0.158085    0.402213     0.007504
AU1422   AU        0.189477    0.186156    0.362126     0.007504
AU1423   AU        0.231958    0.153077    0.371630     0.007504
AU1424   AU        0.226170    0.191858    0.401385     0.007504
AU1425   AU        0.264087    0.155488    0.404256     0.007504
AU1426   AU        0.260397    0.191714    0.363497     0.007504
AU1427   AU        0.292851    0.153179    0.366919     0.007504
AU1428   AU        0.295748    0.194733    0.396788     0.007504
AU1429   AU        0.326576    0.156903    0.404495     0.007504
AU1430   AU        0.326540    0.184077    0.362703     0.007504
AU1431   AU        0.367688    0.157412    0.371940     0.007504
AU1432   AU        0.362425    0.192316    0.406127     0.007504
AU1433   AU        0.398990    0.156331    0.409067     0.007504
AU1434   AU        0.402545    0.195537    0.376436     0.007504
AU1435   AU        0.439808    0.156433    0.376855     0.007504
AU1436   AU        0.438785    0.191678    0.413658     0.007504
AU1437   AU        0.474170    0.152783    0.413140     0.007504
AU1438   AU        0.477160    0.190068    0.380183     0.007504
AU1439   AU        0.509792    0.153426    0.378641     0.007504
AU1440   AU        0.514016    0.184674    0.417157     0.007504
AU1441   AU        0.549730    0.151047    0.408167     0.007504
AU1442   AU        0.553430    0.183810    0.377379     0.007504
AU1443   AU        0.585650    0.149113    0.371793     0.007504
AU1444   AU        0.588387    0.180999    0.414084     0.007504
AU1445   AU        0.626195    0.148914    0.407183     0.007504
AU1446   AU        0.614969    0.182566    0.369398     0.007504
AU1447   AU        0.656273    0.157151    0.363599     0.007504
AU1448   AU        0.651978    0.193214    0.401339     0.007504
AU1449   AU        0.681002    0.155333    0.400829     0.007504
AU1450   AU        0.678329    0.197878    0.361686     0.007504
AU1451   AU        0.705320    0.158420    0.363819     0.007504
AU1452   AU        0.709743    0.194033    0.399494     0.007504
NI1453   NI        0.738727    0.158943    0.400444     0.004307
AU1454   AU        0.745516    0.191164    0.361085     0.007504
NI1455   NI        0.785695    0.193004    0.406475     0.004307
NI1456   NI        0.046401    0.251009    0.355662     0.004307
NI1457   NI        0.072951    0.243185    0.390979     0.004307
AU1458   AU        0.076272    0.282993    0.417927     0.007504
AU1459   AU        0.111435    0.214743    0.401651     0.007504
AU1460   AU        0.111079    0.245063    0.359640     0.007504
AU1461   AU        0.146173    0.210391    0.365811     0.007504
AU1462   AU        0.144794    0.248277    0.397250     0.007504
AU1463   AU        0.187114    0.218729    0.397474     0.007504
AU1464   AU        0.179875    0.247136    0.354502     0.007504
AU1465   AU        0.221330    0.225156    0.361168     0.007504
AU1466   AU        0.217765    0.264294    0.393016     0.007504
AU1467   AU        0.258723    0.230324    0.396002     0.007504
AU1468   AU        0.255100    0.265954    0.357828     0.007504
AU1469   AU        0.294659    0.228851    0.361993     0.007504
AU1470   AU        0.294114    0.268014    0.397038     0.007504
AU1471   AU        0.328485    0.232875    0.400433     0.007504
AU1472   AU        0.330947    0.261849    0.363324     0.007504
AU1473   AU        0.368336    0.230949    0.373782     0.007504
AU1474   AU        0.365316    0.270527    0.398500     0.007504
AU1475   AU        0.403719    0.233058    0.409129     0.007504
AU1476   AU        0.402475    0.271557    0.376795     0.007504
AU1477   AU        0.443236    0.229357    0.380035     0.007504
AU1478   AU        0.437034    0.269563    0.412164     0.007504
AU1479   AU        0.481596    0.250681    0.398405     0.007504
AU1480   AU        0.451889    0.268634    0.361976     0.007504
AU1481   AU        0.519353    0.220856    0.383766     0.007504
AU1482   AU        0.518471    0.274659    0.417485     0.007504
NI1483   NI        0.554882    0.214323    0.415497     0.004307
AU1484   AU        0.553020    0.259739    0.384087     0.007504
NI1485   NI        0.585336    0.219740    0.375224     0.004307
NI1486   NI        0.593083    0.262092    0.400327     0.004307
NI1487   NI        0.617012    0.224824    0.401953     0.004307
NI1488   NI        0.622977    0.268790    0.361601     0.004307
AU1489   AU        0.643369    0.225383    0.364292     0.007504
NI1490   NI        0.641814    0.262988    0.400517     0.004307
AU1491   AU        0.679537    0.231884    0.397331     0.007504
AU1492   AU        0.676581    0.263205    0.362256     0.007504
AU1493   AU        0.709935    0.228421    0.361834     0.007504
AU1494   AU        0.718893    0.266115    0.399196     0.007504
AU1495   AU        0.742529    0.223239    0.396594     0.007504
AU1496   AU        0.751049    0.252505    0.358447     0.007504
NI1497   NI        0.787112    0.218744    0.368871     0.004307
AU1498   AU        0.778854    0.250072    0.396640     0.007504
NI1499   NI        0.809599    0.278822    0.420330     0.004307
NI1500   NI        0.037845    0.309650    0.411087     0.004307
NI1501   NI        0.036214    0.327271    0.349298     0.004307
AU1502   AU        0.093203    0.287171    0.369403     0.007504
AU1503   AU        0.070727    0.320888    0.386234     0.007504
AU1504   AU        0.115608    0.303507    0.408599     0.007504
AU1505   AU        0.118182    0.329248    0.370875     0.007504
AU1506   AU        0.144074    0.282673    0.367617     0.007504
AU1507   AU        0.144841    0.342734    0.412720     0.007504
NI1508   NI        0.176364    0.288276    0.397474     0.004307
NI1509   NI        0.171111    0.325320    0.371315     0.004307
NI1510   NI        0.214592    0.302741    0.360027     0.004307
NI1511   NI        0.244377    0.338209    0.412836     0.004307
NI1512   NI        0.259482    0.302795    0.397086     0.004307
NI1513   NI        0.256074    0.317078    0.342000     0.004307
NI1514   NI        0.295154    0.293084    0.359874     0.004307
NI1515   NI        0.289782    0.326581    0.383671     0.004307
AU1516   AU        0.328716    0.304203    0.395733     0.007504
NI1517   NI        0.329541    0.342592    0.359805     0.004307
AU1518   AU        0.363905    0.302969    0.360740     0.007504
NI1519   NI        0.365890    0.341819    0.386753     0.004307
AU1520   AU        0.391680    0.310580    0.403433     0.007504
NI1521   NI        0.410449    0.337373    0.365392     0.004307
AU1522   AU        0.432509    0.305458    0.385179     0.007504
AU1523   AU        0.453556    0.347205    0.398646     0.007504
AU1524   AU        0.475010    0.303387    0.417278     0.007504
NI1525   NI        0.481344    0.314178    0.367129     0.004307
AU1526   AU        0.503074    0.272405    0.367820     0.007504
NI1527   NI        0.496512    0.338524    0.400483     0.004307
NI1528   NI        0.550459    0.305440    0.423302     0.004307
NI1529   NI        0.540799    0.303784    0.381531     0.004307
NI1530   NI        0.592101    0.301672    0.366820     0.004307
NI1531   NI        0.582127    0.337069    0.409420     0.004307
NI1532   NI        0.626047    0.301554    0.394540     0.004307
NI1533   NI        0.611544    0.342393    0.376997     0.004307
NI1534   NI        0.636036    0.322851    0.348683     0.004307
NI1535   NI        0.645974    0.338244    0.399593     0.004307
NI1536   NI        0.666438    0.301460    0.394447     0.004307
NI1537   NI        0.677828    0.337426    0.368500     0.004307
AU1538   AU        0.709185    0.301928    0.366489     0.007504
AU1539   AU        0.724355    0.329307    0.419477     0.007504
AU1540   AU        0.763809    0.293624    0.411930     0.007504
AU1541   AU        0.751999    0.326493    0.376614     0.007504
AU1542   AU        0.783673    0.286285    0.365923     0.007504
AU1543   AU        0.772631    0.344364    0.411279     0.007504
AU1544   AU        0.802217    0.317964    0.388237     0.007504
NI1545   NI        0.830304    0.348836    0.361981     0.004307
NI1546   NI        0.016911    0.421991    0.456337     0.004307
NI1547   NI        0.034856    0.356604    0.382103     0.004307
NI1548   NI        0.032224    0.375388    0.337866     0.004307
AU1549   AU        0.079717    0.362416    0.361574     0.007504
AU1550   AU        0.072539    0.413294    0.404085     0.007504
AU1551   AU        0.108643    0.374291    0.400497     0.007504
AU1552   AU        0.104315    0.403492    0.361077     0.007504
NI1553   NI        0.144137    0.371659    0.372197     0.004307
NI1554   NI        0.147185    0.407703    0.394410     0.004307
NI1555   NI        0.184603    0.373690    0.396169     0.004307
NI1556   NI        0.183356    0.403374    0.361598     0.004307
NI1557   NI        0.208997    0.339266    0.381620     0.004307
NI1558   NI        0.228578    0.385427    0.417374     0.004307
NI1559   NI        0.274836    0.369220    0.405543     0.004307
NI1560   NI        0.251748    0.358605    0.365391     0.004307
NI1561   NI        0.297749    0.373234    0.362088     0.004307
NI1562   NI        0.294870    0.415071    0.397311     0.004307
NI1563   NI        0.325782    0.380206    0.392218     0.004307
NI1564   NI        0.309417    0.406707    0.340214     0.004307
NI1565   NI        0.385766    0.373896    0.364616     0.004307
NI1566   NI        0.382605    0.409193    0.402557     0.004307
NI1567   NI        0.402393    0.353563    0.409056     0.004307
NI1568   NI        0.415039    0.414784    0.368656     0.004307
NI1569   NI        0.437069    0.375668    0.350563     0.004307
NI1570   NI        0.435993    0.389695    0.396333     0.004307
AU1571   AU        0.490305    0.381454    0.404560     0.007504
NI1572   NI        0.469669    0.399634    0.370801     0.004307
NI1573   NI        0.521887    0.351189    0.369646     0.004307
NI1574   NI        0.487762    0.420996    0.440401     0.004307
NI1575   NI        0.540543    0.344186    0.409672     0.004307
NI1576   NI        0.518789    0.399268    0.380243     0.004307
NI1577   NI        0.559809    0.372697    0.369815     0.004307
NI1578   NI        0.590989    0.408642    0.384264     0.004307
NI1579   NI        0.623927    0.383604    0.399046     0.004307
NI1580   NI        0.630261    0.417260    0.357576     0.004307
NI1581   NI        0.654710    0.372269    0.360269     0.004307
NI1582   NI        0.628267    0.436280    0.411520     0.004307
NI1583   NI        0.685547    0.364281    0.413037     0.004307
NI1584   NI        0.689258    0.396723    0.381807     0.004307
AU1585   AU        0.714971    0.362647    0.377622     0.007504
NI1586   NI        0.718301    0.399443    0.416112     0.004307
AU1587   AU        0.763434    0.382585    0.391132     0.007504
NI1588   NI        0.729706    0.404159    0.358615     0.004307
AU1589   AU        0.798914    0.385037    0.356464     0.007504
AU1590   AU        0.799357    0.412902    0.404452     0.007504
AU1591   AU        0.812085    0.363974    0.403057     0.007504
NI1592   NI        0.843130    0.414280    0.368097     0.004307
NI1593   NI        0.883090    0.429842    0.427727     0.004307
NI1594   NI        0.020165    0.433947    0.348582     0.004307
NI1595   NI        0.029128    0.468543    0.428380     0.004307
NI1596   NI        0.045065    0.400716    0.373354     0.004307
AU1597   AU        0.047668    0.488667    0.362113     0.007504
AU1598   AU        0.069516    0.439954    0.362022     0.007504
AU1599   AU        0.072454    0.467912    0.404202     0.007504
AU1600   AU        0.108428    0.438063    0.399423     0.007504
AU1601   AU        0.107136    0.470210    0.368072     0.007504
NI1602   NI        0.139583    0.441484    0.367898     0.004307
AU1603   AU        0.143369    0.472214    0.405831     0.007504
NI1604   NI        0.176560    0.437447    0.387079     0.004307
NI1605   NI        0.173898    0.479263    0.375137     0.004307
NI1606   NI        0.217657    0.416284    0.385060     0.004307
NI1607   NI        0.213815    0.457845    0.394775     0.004307
NI1608   NI        0.247786    0.481560    0.423903     0.004307
NI1609   NI        0.257442    0.441278    0.379194     0.004307
AU1610   AU        0.306806    0.456124    0.369248     0.007504
AU1611   AU        0.296179    0.457310    0.417665     0.007504
AU1612   AU        0.335413    0.433716    0.402613     0.007504
AU1613   AU        0.312939    0.504452    0.351818     0.007504
NI1614   NI        0.353988    0.402265    0.370692     0.004307
AU1615   AU        0.370677    0.466425    0.403829     0.007504
NI1616   NI        0.421002    0.447028    0.409840     0.004307
NI1617   NI        0.405646    0.472265    0.372940     0.004307
NI1618   NI        0.444899    0.442741    0.358293     0.004307
NI1619   NI        0.452702    0.481886    0.402614     0.004307
NI1620   NI        0.460877    0.421590    0.408229     0.004307
NI1621   NI        0.478777    0.459039    0.375702     0.004307
NI1622   NI        0.525165    0.442851    0.370073     0.004307
NI1623   NI        0.478608    0.507684    0.426433     0.004307
NI1624   NI        0.536909    0.431050    0.413664     0.004307
NI1625   NI        0.549685    0.476342    0.398613     0.004307
NI1626   NI        0.593657    0.451888    0.371259     0.004307
NI1627   NI        0.599867    0.493762    0.393935     0.004307
NI1628   NI        0.576730    0.442332    0.421075     0.004307
NI1629   NI        0.655053    0.491151    0.341474     0.004307
NI1630   NI        0.661246    0.443020    0.370656     0.004307
NI1631   NI        0.663988    0.468282    0.413491     0.004307
NI1632   NI        0.703495    0.434918    0.371839     0.004307
NI1633   NI        0.687347    0.480453    0.375779     0.004307
NI1634   NI        0.737887    0.446170    0.345795     0.004307
NI1635   NI        0.739119    0.470439    0.390898     0.004307
NI1636   NI        0.744609    0.425187    0.391401     0.004307
AU1637   AU        0.761631    0.488820    0.354343     0.007504
AU1638   AU        0.777764    0.443988    0.371558     0.007504
AU1639   AU        0.783317    0.487204    0.391386     0.007504
AU1640   AU        0.819410    0.451061    0.389420     0.007504
NI1641   NI        0.864853    0.453451    0.399171     0.004307
NI1642   NI        0.850288    0.467567    0.358873     0.004307
NI1643   NI        0.862385    0.477777    0.443595     0.004307
AU1644   AU        0.051661    0.506785    0.406177     0.007504
AU1645   AU        0.051734    0.540033    0.367097     0.007504
AU1646   AU        0.086649    0.508495    0.370800     0.007504
AU1647   AU        0.080446    0.546763    0.406262     0.007504
AU1648   AU        0.109281    0.505669    0.410060     0.007504
AU1649   AU        0.115497    0.550812    0.370443     0.007504
AU1650   AU        0.139902    0.506042    0.369619     0.007504
AU1651   AU        0.145696    0.538084    0.406179     0.007504
NI1652   NI        0.180062    0.503112    0.417881     0.004307
NI1653   NI        0.184540    0.528873    0.375051     0.004307
NI1654   NI        0.219917    0.502369    0.382472     0.004307
NI1655   NI        0.223289    0.535295    0.406188     0.004307
NI1656   NI        0.264249    0.533360    0.416429     0.004307
NI1657   NI        0.245289    0.535672    0.365104     0.004307
AU1658   AU        0.276018    0.487666    0.384150     0.007504
AU1659   AU        0.298059    0.527344    0.387431     0.007504
AU1660   AU        0.328860    0.490783    0.396413     0.007504
AU1661   AU        0.340775    0.538974    0.364135     0.007504
AU1662   AU        0.376054    0.508016    0.391413     0.007504
NI1663   NI        0.375177    0.573019    0.401991     0.004307
NI1664   NI        0.408999    0.494143    0.422636     0.004307
AU1665   AU        0.388445    0.541046    0.358322     0.007504
NI1666   NI        0.425767    0.516469    0.381205     0.004307
NI1667   NI        0.424069    0.560970    0.384361     0.004307
NI1668   NI        0.444168    0.484268    0.361743     0.004307
NI1669   NI        0.471610    0.537614    0.382151     0.004307
NI1670   NI        0.505539    0.497237    0.387291     0.004307
AU1671   AU        0.509104    0.543888    0.414307     0.007504
NI1672   NI        0.560871    0.516849    0.389606     0.004307
NI1673   NI        0.549884    0.533219    0.350268     0.004307
NI1674   NI        0.591650    0.527071    0.357262     0.004307
NI1675   NI        0.587855    0.556622    0.394941     0.004307
NI1676   NI        0.643266    0.507435    0.397740     0.004307
NI1677   NI        0.605579    0.589529    0.372327     0.004307
NI1678   NI        0.673580    0.519686    0.363524     0.004307
NI1679   NI        0.632711    0.554216    0.400103     0.004307
NI1680   NI        0.693516    0.534266    0.398440     0.004307
AU1681   AU        0.712810    0.547568    0.353151     0.007504
NI1682   NI        0.717749    0.501492    0.351495     0.004307
AU1683   AU        0.731872    0.561024    0.399592     0.007504
AU1684   AU        0.751518    0.522305    0.396758     0.007504
AU1685   AU        0.759891    0.563680    0.364142     0.007504
AU1686   AU        0.788401    0.527804    0.362027     0.007504
AU1687   AU        0.786223    0.557568    0.399471     0.007504
AU1688   AU        0.818801    0.512564    0.396610     0.007504
NI1689   NI        0.832758    0.529063    0.348712     0.004307
NI1690   NI        0.048134    0.578065    0.407785     0.004307
NI1691   NI        0.065874    0.619178    0.385795     0.004307
AU1692   AU        0.078193    0.579927    0.364561     0.007504
NI1693   NI        0.071263    0.620156    0.428886     0.004307
AU1694   AU        0.115285    0.578806    0.414331     0.007504
AU1695   AU        0.119628    0.601993    0.369032     0.007504
NI1696   NI        0.153734    0.576625    0.375801     0.004307
AU1697   AU        0.153706    0.608531    0.404685     0.007504
AU1698   AU        0.188299    0.569346    0.406442     0.007504
NI1699   NI        0.195462    0.611404    0.365942     0.004307
NI1700   NI        0.229099    0.578214    0.387059     0.004307
NI1701   NI        0.227536    0.618918    0.403486     0.004307
AU1702   AU        0.271545    0.596969    0.403781     0.007504
NI1703   NI        0.282914    0.614567    0.362195     0.004307
NI1704   NI        0.275702    0.570343    0.368203     0.004307
AU1705   AU        0.320310    0.619990    0.401369     0.007504
AU1706   AU        0.318502    0.570877    0.393631     0.007504
NI1707   NI        0.300267    0.626919    0.326416     0.004307
AU1708   AU        0.351963    0.594868    0.370744     0.007504
AU1709   AU        0.369934    0.626467    0.411504     0.007504
NI1710   NI        0.410639    0.588379    0.426846     0.004307
NI1711   NI        0.395009    0.603193    0.371357     0.004307
NI1712   NI        0.439266    0.599425    0.386177     0.004307
NI1713   NI        0.465787    0.654206    0.403205     0.004307
NI1714   NI        0.463748    0.570778    0.407680     0.004307
NI1715   NI        0.481444    0.615176    0.377929     0.004307
NI1716   NI        0.495504    0.575003    0.375846     0.004307
NI1717   NI        0.519376    0.600502    0.408421     0.004307
NI1718   NI        0.542925    0.560629    0.387183     0.004307
NI1719   NI        0.522079    0.612069    0.361017     0.004307
NI1720   NI        0.566763    0.596945    0.337946     0.004307
NI1721   NI        0.557097    0.598046    0.380438     0.004307
NI1722   NI        0.602916    0.586192    0.421525     0.004307
NI1723   NI        0.646295    0.596625    0.345144     0.004307
NI1724   NI        0.637132    0.607103    0.393275     0.004307
NI1725   NI        0.642895    0.648914    0.407005     0.004307
NI1726   NI        0.673744    0.580774    0.383707     0.004307
NI1727   NI        0.678352    0.627826    0.365469     0.004307
AU1728   AU        0.718698    0.595298    0.363288     0.007504
AU1729   AU        0.697318    0.612018    0.410021     0.007504
AU1730   AU        0.759461    0.601403    0.400051     0.007504
AU1731   AU        0.763096    0.611011    0.351043     0.007504
NI1732   NI        0.806798    0.584433    0.359925     0.004307
NI1733   NI        0.801276    0.628430    0.421551     0.004307
NI1734   NI        0.827364    0.576568    0.399191     0.004307
NI1735   NI        0.856265    0.547510    0.393224     0.004307
NI1736   NI        0.092203    0.648146    0.369257     0.004307
NI1737   NI        0.069306    0.656699    0.405185     0.004307
AU1738   AU        0.107985    0.628478    0.402280     0.007504
NI1739   NI        0.103805    0.696424    0.370150     0.004307
AU1740   AU        0.139523    0.658920    0.381299     0.007504
AU1741   AU        0.139124    0.694825    0.410395     0.007504
AU1742   AU        0.188105    0.648442    0.397105     0.007504
AU1743   AU        0.177758    0.693242    0.375782     0.007504
AU1744   AU        0.212175    0.669018    0.349582     0.007504
AU1745   AU        0.221707    0.686228    0.395395     0.007504
NI1746   NI        0.257712    0.657379    0.400459     0.004307
AU1747   AU        0.258417    0.686633    0.361912     0.007504
AU1748   AU        0.302704    0.654195    0.372587     0.007504
AU1749   AU        0.296991    0.694119    0.403610     0.007504
AU1750   AU        0.337759    0.666058    0.406418     0.007504
AU1751   AU        0.335962    0.691700    0.370713     0.007504
AU1752   AU        0.354254    0.642555    0.366187     0.007504
AU1753   AU        0.373591    0.701361    0.409471     0.007504
NI1754   NI        0.386883    0.666007    0.389375     0.004307
AU1755   AU        0.408358    0.708063    0.373890     0.007504
NI1756   NI        0.409654    0.658600    0.329868     0.004307
NI1757   NI        0.428058    0.685904    0.412049     0.004307
NI1758   NI        0.438130    0.669494    0.370260     0.004307
NI1759   NI        0.498914    0.708056    0.342847     0.004307
NI1760   NI        0.508402    0.645517    0.394879     0.004307
NI1761   NI        0.503765    0.709490    0.395175     0.004307
NI1762   NI        0.573542    0.640938    0.402728     0.004307
NI1763   NI        0.531182    0.665704    0.361570     0.004307
NI1764   NI        0.572956    0.683649    0.369276     0.004307
NI1765   NI        0.567757    0.708993    0.402064     0.004307
NI1766   NI        0.603789    0.671126    0.406745     0.004307
NI1767   NI        0.629736    0.695394    0.369861     0.004307
NI1768   NI        0.654813    0.662193    0.358699     0.004307
NI1769   NI        0.662352    0.687486    0.392714     0.004307
NI1770   NI        0.693733    0.662109    0.396093     0.004307
AU1771   AU        0.699868    0.708847    0.366985     0.007504
AU1772   AU        0.730321    0.640400    0.376979     0.007504
AU1773   AU        0.724520    0.694412    0.410537     0.007504
AU1774   AU        0.759472    0.658965    0.410877     0.007504
AU1775   AU        0.750290    0.695966    0.372902     0.007504
AU1776   AU        0.791373    0.632513    0.375424     0.007504
NI1777   NI        0.778443    0.700749    0.407013     0.004307
NI1778   NI        0.101316    0.726147    0.411359     0.004307
AU1779   AU        0.139489    0.725463    0.373265     0.007504
NI1780   NI        0.141188    0.762528    0.404940     0.004307
AU1781   AU        0.178516    0.730398    0.405502     0.007504
NI1782   NI        0.176793    0.758715    0.368143     0.004307
AU1783   AU        0.211793    0.729172    0.368446     0.007504
AU1784   AU        0.218670    0.761110    0.401534     0.007504
AU1785   AU        0.254779    0.722735    0.398843     0.007504
AU1786   AU        0.254124    0.761101    0.365303     0.007504
AU1787   AU        0.291244    0.727600    0.363184     0.007504
AU1788   AU        0.293690    0.758699    0.400593     0.007504
AU1789   AU        0.333245    0.727473    0.407674     0.007504
AU1790   AU        0.328718    0.758872    0.367748     0.007504
AU1791   AU        0.367356    0.731647    0.369906     0.007504
AU1792   AU        0.366456    0.765101    0.404784     0.007504
AU1793   AU        0.409531    0.737217    0.415978     0.007504
AU1794   AU        0.404971    0.763536    0.374026     0.007504
NI1795   NI        0.465419    0.714977    0.378623     0.004307
AU1796   AU        0.423863    0.789826    0.415718     0.007504
NI1797   NI        0.492502    0.735082    0.439333     0.004307
AU1798   AU        0.447029    0.761814    0.390293     0.007504
NI1799   NI        0.489476    0.753210    0.362957     0.004307
AU1800   AU        0.520848    0.786067    0.378820     0.007504
NI1801   NI        0.529482    0.746033    0.409090     0.004307
AU1802   AU        0.568352    0.780842    0.389420     0.007504
NI1803   NI        0.617495    0.739873    0.352768     0.004307
NI1804   NI        0.580007    0.754021    0.421764     0.004307
NI1805   NI        0.625879    0.734286    0.397342     0.004307
AU1806   AU        0.598591    0.785872    0.332974     0.007504
AU1807   AU        0.659165    0.737230    0.370969     0.007504
AU1808   AU        0.656370    0.766858    0.410051     0.007504
AU1809   AU        0.681919    0.725936    0.417085     0.007504
NI1810   NI        0.675847    0.782170    0.368120     0.004307
NI1811   NI        0.725051    0.764771    0.348465     0.004307
NI1812   NI        0.704816    0.754274    0.386791     0.004307
NI1813   NI        0.755278    0.743496    0.393161     0.004307
NI1814   NI        0.207569    0.805061    0.391719     0.004307
NI1815   NI        0.240703    0.803963    0.353609     0.004307
AU1816   AU        0.256362    0.796485    0.400958     0.007504
NI1817   NI        0.284436    0.846206    0.361495     0.004307
AU1818   AU        0.290156    0.795043    0.363877     0.007504
AU1819   AU        0.294126    0.829119    0.401771     0.007504
AU1820   AU        0.327914    0.795178    0.399823     0.007504
AU1821   AU        0.325278    0.825900    0.362074     0.007504
AU1822   AU        0.367201    0.798241    0.366963     0.007504
NI1823   NI        0.346015    0.838761    0.401522     0.004307
AU1824   AU        0.398349    0.828205    0.411238     0.007504
NI1825   NI        0.366975    0.848771    0.358775     0.004307
AU1826   AU        0.423744    0.808110    0.373964     0.007504
AU1827   AU        0.448396    0.831422    0.414412     0.007504
AU1828   AU        0.492989    0.818818    0.402729     0.007504
AU1829   AU        0.472288    0.797732    0.366094     0.007504
AU1830   AU        0.520212    0.836486    0.366359     0.007504
AU1831   AU        0.455405    0.845058    0.372486     0.007504
AU1832   AU        0.549142    0.821679    0.403650     0.007504
NI1833   NI        0.537668    0.880848    0.358337     0.004307
AU1834   AU        0.553623    0.770176    0.345876     0.007504
NI1835   NI        0.571278    0.857519    0.377347     0.004307
NI1836   NI        0.614127    0.783394    0.408028     0.004307
NI1837   NI        0.614543    0.828922    0.364279     0.004307
NI1838   NI        0.631883    0.780601    0.370895     0.004307
NI1839   NI        0.656500    0.810455    0.394478     0.004307
NI1840   NI        0.409756    0.854714    0.353302     0.004307
NI1841   NI        0.428416    0.856895    0.312009     0.004307
NI1842   NI        0.445076    0.900427    0.474311     0.004307
NI1843   NI        0.238745    0.067982    0.473906     0.004307
NI1844   NI        0.282381    0.072771    0.489128     0.004307
NI1845   NI        0.301468    0.050181    0.395969     0.004307
NI1846   NI        0.326215    0.030048    0.438388     0.004307
NI1847   NI        0.341466    0.055793    0.478911     0.004307
NI1848   NI        0.405444    0.000714    0.436220     0.004307
NI1849   NI        0.404911    0.047188    0.439734     0.004307
NI1850   NI        0.433877    0.007474    0.396111     0.004307
NI1851   NI        0.409525    0.041776    0.487725     0.004307
NI1852   NI        0.478401    0.020572    0.514356     0.004307
AU1853   AU        0.455621    0.037835    0.465747     0.007504
NI1854   NI        0.493106    0.018425    0.432577     0.004307
AU1855   AU        0.506222    0.042375    0.477062     0.007504
NI1856   NI        0.548763    0.033588    0.435644     0.004307
NI1857   NI        0.606630    0.048159    0.546752     0.004307
NI1858   NI        0.617471    0.052576    0.449008     0.004307
NI1859   NI        0.160009    0.121495    0.444219     0.004307
NI1860   NI        0.153921    0.061249    0.452819     0.004307
AU1861   AU        0.200412    0.116217    0.432331     0.007504
NI1862   NI        0.240425    0.079651    0.430381     0.004307
AU1863   AU        0.238586    0.116041    0.464796     0.007504
NI1864   NI        0.242947    0.087513    0.517590     0.004307
NI1865   NI        0.270260    0.118737    0.437761     0.004307
NI1866   NI        0.306883    0.069294    0.452811     0.004307
AU1867   AU        0.286213    0.125630    0.480293     0.007504
AU1868   AU        0.325303    0.096779    0.485000     0.007504
AU1869   AU        0.321923    0.121991    0.441630     0.007504
AU1870   AU        0.357985    0.089296    0.445299     0.007504
AU1871   AU        0.364252    0.125521    0.483058     0.007504
AU1872   AU        0.396285    0.083590    0.466407     0.007504
AU1873   AU        0.397397    0.123884    0.445961     0.007504
AU1874   AU        0.437422    0.077671    0.441699     0.007504
AU1875   AU        0.432087    0.110810    0.480436     0.007504
AU1876   AU        0.473365    0.079304    0.481970     0.007504
AU1877   AU        0.471130    0.115985    0.448927     0.007504
AU1878   AU        0.491440    0.072508    0.436130     0.007504
AU1879   AU        0.504282    0.115310    0.499614     0.007504
AU1880   AU        0.537214    0.074650    0.455153     0.007504
AU1881   AU        0.552065    0.118812    0.443472     0.007504
AU1882   AU        0.586269    0.089959    0.442148     0.007504
AU1883   AU        0.589062    0.107936    0.483519     0.007504
NI1884   NI        0.616078    0.073009    0.503314     0.004307
AU1885   AU        0.628730    0.113205    0.439297     0.007504
NI1886   NI        0.659943    0.074642    0.432081     0.004307
AU1887   AU        0.651962    0.109267    0.482412     0.007504
NI1888   NI        0.705631    0.092542    0.487389     0.004307
AU1889   AU        0.686069    0.113996    0.446159     0.007504
NI1890   NI        0.725920    0.143997    0.477038     0.004307
NI1891   NI        0.076623    0.167582    0.470920     0.004307
NI1892   NI        0.119472    0.189809    0.497697     0.004307
NI1893   NI        0.105876    0.193020    0.439134     0.004307
NI1894   NI        0.133206    0.147347    0.460586     0.004307
AU1895   AU        0.157446    0.193446    0.473802     0.007504
AU1896   AU        0.185185    0.155234    0.457921     0.007504
AU1897   AU        0.190760    0.192275    0.435096     0.007504
AU1898   AU        0.226972    0.155646    0.434001     0.007504
AU1899   AU        0.223299    0.193244    0.464739     0.007504
AU1900   AU        0.261285    0.159743    0.468891     0.007504
AU1901   AU        0.264105    0.196300    0.433951     0.007504
AU1902   AU        0.299380    0.159238    0.438931     0.007504
AU1903   AU        0.297975    0.193408    0.477446     0.007504
AU1904   AU        0.329468    0.154178    0.480792     0.007504
AU1905   AU        0.325866    0.195113    0.438418     0.007504
AU1906   AU        0.359376    0.158048    0.443372     0.007504
AU1907   AU        0.356643    0.193845    0.475584     0.007504
AU1908   AU        0.397980    0.164291    0.477947     0.007504
AU1909   AU        0.397257    0.197359    0.440071     0.007504
AU1910   AU        0.434255    0.154469    0.446039     0.007504
NI1911   NI        0.440522    0.200501    0.464293     0.004307
NI1912   NI        0.465456    0.142536    0.483453     0.004307
NI1913   NI        0.473438    0.192727    0.441388     0.004307
AU1914   AU        0.511246    0.147287    0.447494     0.007504
NI1915   NI        0.515906    0.196827    0.457409     0.004307
AU1916   AU        0.548276    0.134134    0.483273     0.007504
AU1917   AU        0.552782    0.172849    0.445835     0.007504
AU1918   AU        0.591233    0.142930    0.448377     0.007504
AU1919   AU        0.587624    0.186053    0.468708     0.007504
AU1920   AU        0.626364    0.150909    0.473735     0.007504
AU1921   AU        0.621719    0.187934    0.441182     0.007504
AU1922   AU        0.658361    0.154238    0.437852     0.007504
AU1923   AU        0.651718    0.187779    0.478022     0.007504
AU1924   AU        0.682212    0.154129    0.478127     0.007504
AU1925   AU        0.683017    0.194066    0.438684     0.007504
AU1926   AU        0.710349    0.157441    0.437090     0.007504
AU1927   AU        0.716053    0.187951    0.475281     0.007504
NI1928   NI        0.746119    0.132133    0.437088     0.004307
AU1929   AU        0.745445    0.197144    0.437137     0.007504
NI1930   NI        0.767897    0.184070    0.482813     0.004307
NI1931   NI        0.037004    0.268972    0.396375     0.004307
NI1932   NI        0.076429    0.244569    0.444710     0.004307
AU1933   AU        0.083632    0.285160    0.470525     0.007504
AU1934   AU        0.118393    0.225305    0.469050     0.007504
AU1935   AU        0.117648    0.262682    0.435404     0.007504
AU1936   AU        0.150473    0.223230    0.434072     0.007504
AU1937   AU        0.152660    0.260474    0.465880     0.007504
AU1938   AU        0.188393    0.230535    0.467180     0.007504
AU1939   AU        0.183105    0.259011    0.429349     0.007504
AU1940   AU        0.222528    0.231484    0.431294     0.007504
AU1941   AU        0.216801    0.272914    0.461563     0.007504
NI1942   NI        0.257898    0.229994    0.469659     0.004307
AU1943   AU        0.255084    0.269863    0.428999     0.007504
AU1944   AU        0.292882    0.234411    0.431234     0.007504
NI1945   NI        0.287593    0.269001    0.465141     0.004307
NI1946   NI        0.324321    0.230286    0.467841     0.004307
AU1947   AU        0.331829    0.269627    0.432660     0.007504
AU1948   AU        0.365098    0.229481    0.436033     0.007504
AU1949   AU        0.366499    0.248682    0.474136     0.007504
NI1950   NI        0.395202    0.204478    0.490974     0.004307
AU1951   AU        0.392153    0.274573    0.437340     0.007504
NI1952   NI        0.448767    0.230851    0.432713     0.004307
AU1953   AU        0.414546    0.238674    0.465003     0.007504
NI1954   NI        0.483842    0.227114    0.466214     0.004307
AU1955   AU        0.476594    0.264340    0.444420     0.007504
AU1956   AU        0.512398    0.232552    0.430722     0.007504
AU1957   AU        0.522886    0.264486    0.464207     0.007504
AU1958   AU        0.553722    0.222449    0.463760     0.007504
AU1959   AU        0.554739    0.261633    0.436443     0.007504
AU1960   AU        0.589680    0.227029    0.438091     0.007504
AU1961   AU        0.588529    0.260200    0.476212     0.007504
AU1962   AU        0.618911    0.223960    0.475969     0.007504
NI1963   NI        0.615438    0.262597    0.440196     0.004307
AU1964   AU        0.648654    0.227712    0.438718     0.007504
AU1965   AU        0.650472    0.262993    0.476178     0.007504
AU1966   AU        0.682172    0.224091    0.476338     0.007504
AU1967   AU        0.679099    0.268925    0.430369     0.007504
AU1968   AU        0.712101    0.228082    0.435908     0.007504
AU1969   AU        0.707309    0.259338    0.474481     0.007504
AU1970   AU        0.744058    0.227133    0.474580     0.007504
AU1971   AU        0.748369    0.250088    0.438657     0.007504
NI1972   NI        0.788508    0.225465    0.457973     0.004307
AU1973   AU        0.797119    0.275510    0.463205     0.007504
NI1974   NI        0.860028    0.270674    0.477037     0.004307
NI1975   NI        0.038580    0.278119    0.446925     0.004307
NI1976   NI        0.026553    0.346949    0.425190     0.004307
AU1977   AU        0.061481    0.322380    0.445680     0.007504
AU1978   AU        0.077285    0.351747    0.486644     0.007504
AU1979   AU        0.120396    0.307152    0.472907     0.007504
AU1980   AU        0.107009    0.347547    0.447215     0.007504
AU1981   AU        0.156044    0.302603    0.439975     0.007504
AU1982   AU        0.150834    0.344155    0.468480     0.007504
NI1983   NI        0.160793    0.298222    0.494784     0.004307
NI1984   NI        0.194943    0.318644    0.463429     0.004307
NI1985   NI        0.216966    0.307552    0.422379     0.004307
NI1986   NI        0.224443    0.348128    0.450817     0.004307
NI1987   NI        0.255557    0.306005    0.464394     0.004307
NI1988   NI        0.271485    0.343337    0.456184     0.004307
AU1989   AU        0.293211    0.302742    0.431184     0.007504
NI1990   NI        0.282989    0.322321    0.494401     0.004307
NI1991   NI        0.327858    0.282183    0.475137     0.004307
NI1992   NI        0.315514    0.339276    0.420909     0.004307
NI1993   NI        0.358964    0.310969    0.434591     0.004307
NI1994   NI        0.366734    0.326057    0.474495     0.004307
NI1995   NI        0.414966    0.293996    0.477826     0.004307
NI1996   NI        0.402244    0.346626    0.455774     0.004307
AU1997   AU        0.430614    0.315888    0.432901     0.007504
NI1998   NI        0.447622    0.349758    0.473791     0.004307
AU1999   AU        0.467318    0.307324    0.465910     0.007504
AU2000   AU        0.475199    0.346494    0.438382     0.007504
AU2001   AU        0.514416    0.317105    0.446275     0.007504
NI2002   NI        0.498616    0.340802    0.479824     0.004307
AU2003   AU        0.557323    0.298471    0.471756     0.007504
NI2004   NI        0.557663    0.338843    0.448109     0.004307
NI2005   NI        0.591646    0.298777    0.437594     0.004307
NI2006   NI        0.584672    0.339039    0.488016     0.004307
AU2007   AU        0.610944    0.299235    0.476883     0.007504
NI2008   NI        0.615171    0.347483    0.431385     0.004307
AU2009   AU        0.640317    0.304270    0.437370     0.007504
AU2010   AU        0.659814    0.346410    0.460229     0.007504
AU2011   AU        0.679031    0.301333    0.471221     0.007504
NI2012   NI        0.683122    0.315164    0.428883     0.004307
AU2013   AU        0.723676    0.293715    0.443415     0.007504
AU2014   AU        0.712830    0.340193    0.465440     0.007504
AU2015   AU        0.748976    0.282583    0.476805     0.007504
AU2016   AU        0.766509    0.321429    0.450691     0.007504
AU2017   AU        0.811065    0.320792    0.436872     0.007504
AU2018   AU        0.804015    0.350295    0.479314     0.007504
NI2019   NI        0.839281    0.318947    0.473106     0.004307
AU2020   AU        0.834181    0.361002    0.447603     0.007504
NI2021   NI        0.000714    0.374676    0.446491     0.004307
NI2022   NI        0.014061    0.389815    0.493207     0.004307
NI2023   NI        0.031581    0.353686    0.471668     0.004307
AU2024   AU        0.043800    0.391182    0.435501     0.007504
AU2025   AU        0.070819    0.360227    0.416869     0.007504
AU2026   AU        0.063939    0.401438    0.483016     0.007504
AU2027   AU        0.116982    0.383701    0.483877     0.007504
AU2028   AU        0.092590    0.393462    0.444236     0.007504
AU2029   AU        0.142200    0.383740    0.438679     0.007504
NI2030   NI        0.196351    0.402788    0.506859     0.004307
NI2031   NI        0.193443    0.363139    0.478185     0.004307
NI2032   NI        0.185757    0.402841    0.434253     0.004307
NI2033   NI        0.185290    0.350980    0.432102     0.004307
NI2034   NI        0.222584    0.410803    0.465515     0.004307
NI2035   NI        0.260956    0.389119    0.453255     0.004307
AU2036   AU        0.264589    0.434187    0.441326     0.007504
NI2037   NI        0.303155    0.380073    0.434122     0.004307
NI2038   NI        0.276117    0.376147    0.489858     0.004307
NI2039   NI        0.317700    0.340256    0.472803     0.004307
NI2040   NI        0.322421    0.382518    0.471670     0.004307
NI2041   NI        0.368458    0.354119    0.431514     0.004307
NI2042   NI        0.355645    0.411548    0.500241     0.004307
NI2043   NI        0.367159    0.375752    0.475982     0.004307
NI2044   NI        0.397733    0.387336    0.436941     0.004307
NI2045   NI        0.452724    0.385060    0.434825     0.004307
NI2046   NI        0.421303    0.386140    0.478634     0.004307
NI2047   NI        0.485643    0.391054    0.467666     0.004307
NI2048   NI        0.456516    0.425624    0.470251     0.004307
NI2049   NI        0.516154    0.365382    0.436974     0.004307
NI2050   NI        0.528122    0.408661    0.452413     0.004307
NI2051   NI        0.548201    0.378287    0.476092     0.004307
NI2052   NI        0.554520    0.385889    0.409955     0.004307
NI2053   NI        0.581168    0.371232    0.438362     0.004307
NI2054   NI        0.597240    0.404085    0.486785     0.004307
NI2055   NI        0.620293    0.363933    0.467841     0.004307
NI2056   NI        0.613172    0.397190    0.442168     0.004307
NI2057   NI        0.653192    0.379471    0.435870     0.004307
NI2058   NI        0.648045    0.416911    0.463445     0.004307
AU2059   AU        0.691003    0.385910    0.458143     0.007504
NI2060   NI        0.673163    0.424260    0.427102     0.004307
NI2061   NI        0.745415    0.367434    0.433724     0.004307
NI2062   NI        0.720001    0.423922    0.460922     0.004307
AU2063   AU        0.754844    0.366895    0.474457     0.007504
NI2064   NI        0.758730    0.408600    0.435903     0.004307
AU2065   AU        0.790596    0.381574    0.444330     0.007504
AU2066   AU        0.786363    0.399753    0.492750     0.007504
AU2067   AU        0.824609    0.398460    0.471857     0.007504
NI2068   NI        0.846692    0.393037    0.412798     0.004307
NI2069   NI        0.857254    0.352828    0.394147     0.004307
NI2070   NI        0.867016    0.390432    0.451008     0.004307
NI2071   NI        0.022561    0.421582    0.415082     0.004307
NI2072   NI        0.002150    0.464828    0.377376     0.004307
AU2073   AU        0.043174    0.447406    0.485967     0.007504
NI2074   NI        0.040645    0.484771    0.465091     0.004307
AU2075   AU        0.062894    0.435880    0.442500     0.007504
NI2076   NI        0.079757    0.465207    0.472772     0.004307
AU2077   AU        0.106039    0.426535    0.469038     0.007504
AU2078   AU        0.105708    0.466506    0.441269     0.007504
AU2079   AU        0.142884    0.430672    0.435033     0.007504
AU2080   AU        0.141516    0.462732    0.471863     0.007504
NI2081   NI        0.174959    0.427639    0.474962     0.004307
NI2082   NI        0.178429    0.462328    0.430972     0.004307
NI2083   NI        0.224240    0.431898    0.427411     0.004307
NI2084   NI        0.220325    0.459339    0.461550     0.004307
NI2085   NI        0.255266    0.445166    0.489151     0.004307
NI2086   NI        0.263090    0.503703    0.458097     0.004307
NI2087   NI        0.315542    0.425165    0.448409     0.004307
AU2088   AU        0.295200    0.465275    0.466154     0.007504
NI2089   NI        0.340559    0.444677    0.480104     0.004307
AU2090   AU        0.338746    0.464152    0.441312     0.007504
NI2091   NI        0.359777    0.420443    0.439227     0.004307
NI2092   NI        0.375366    0.472847    0.476162     0.004307
NI2093   NI        0.390682    0.416960    0.472863     0.004307
AU2094   AU        0.397186    0.453084    0.445279     0.007504
NI2095   NI        0.428479    0.417574    0.439421     0.004307
NI2096   NI        0.442709    0.504527    0.467031     0.004307
NI2097   NI        0.505421    0.429713    0.480826     0.004307
NI2098   NI        0.447085    0.463282    0.449194     0.004307
NI2099   NI        0.494591    0.462344    0.416213     0.004307
AU2100   AU        0.491816    0.488591    0.462870     0.007504
NI2101   NI        0.524536    0.453363    0.450079     0.004307
NI2102   NI        0.574992    0.488655    0.433960     0.004307
NI2103   NI        0.572834    0.410825    0.450355     0.004307
NI2104   NI        0.596556    0.450946    0.461183     0.004307
NI2105   NI        0.619255    0.433786    0.506920     0.004307
NI2106   NI        0.624910    0.478947    0.424083     0.004307
NI2107   NI        0.642382    0.477055    0.462160     0.004307
NI2108   NI        0.638351    0.487940    0.508815     0.004307
NI2109   NI        0.681968    0.454080    0.460908     0.004307
NI2110   NI        0.702733    0.487928    0.422706     0.004307
NI2111   NI        0.727727    0.453159    0.430349     0.004307
NI2112   NI        0.721853    0.476730    0.467422     0.004307
NI2113   NI        0.757547    0.445670    0.466668     0.004307
AU2114   AU        0.774666    0.454524    0.422498     0.007504
AU2115   AU        0.799761    0.431427    0.453192     0.007504
AU2116   AU        0.785978    0.474969    0.468177     0.007504
AU2117   AU        0.833548    0.461429    0.475544     0.007504
AU2118   AU        0.818842    0.475112    0.429888     0.007504
AU2119   AU        0.841444    0.430871    0.436351     0.007504
NI2120   NI        0.852045    0.516915    0.430523     0.004307
NI2121   NI        0.007754    0.503947    0.423105     0.004307
NI2122   NI        0.036326    0.525405    0.479732     0.004307
NI2123   NI        0.047366    0.542298    0.438568     0.004307
AU2124   AU        0.073802    0.506603    0.444839     0.007504
AU2125   AU        0.083167    0.541636    0.484460     0.007504
AU2126   AU        0.112186    0.500576    0.479067     0.007504
AU2127   AU        0.112122    0.540896    0.444986     0.007504
AU2128   AU        0.143114    0.501823    0.440648     0.007504
NI2129   NI        0.163601    0.530078    0.474866     0.004307
NI2130   NI        0.182033    0.490668    0.470390     0.004307
NI2131   NI        0.197910    0.550490    0.451909     0.004307
NI2132   NI        0.214793    0.500794    0.445428     0.004307
NI2133   NI        0.233364    0.570783    0.478599     0.004307
NI2134   NI        0.264734    0.545611    0.460173     0.004307
NI2135   NI        0.298142    0.552773    0.438401     0.004307
NI2136   NI        0.297094    0.501225    0.428204     0.004307
NI2137   NI        0.300990    0.504833    0.491909     0.004307
NI2138   NI        0.320896    0.518424    0.457386     0.004307
AU2139   AU        0.341821    0.533806    0.413990     0.007504
AU2140   AU        0.365655    0.497855    0.438268     0.007504
NI2141   NI        0.365271    0.538101    0.459828     0.004307
NI2142   NI        0.395865    0.511728    0.468982     0.004307
NI2143   NI        0.392280    0.538983    0.419042     0.004307
NI2144   NI        0.441982    0.532641    0.419671     0.004307
NI2145   NI        0.417876    0.545515    0.454957     0.004307
AU2146   AU        0.479500    0.524544    0.499354     0.007504
NI2147   NI        0.468491    0.545497    0.451504     0.004307
AU2148   AU        0.529397    0.499827    0.434406     0.007504
AU2149   AU        0.516885    0.533913    0.465327     0.007504
AU2150   AU        0.563111    0.511034    0.473102     0.007504
AU2151   AU        0.553239    0.545767    0.432906     0.007504
NI2152   NI        0.624227    0.536037    0.438458     0.004307
NI2153   NI        0.584047    0.571416    0.465266     0.004307
AU2154   AU        0.601741    0.534991    0.489861     0.007504
NI2155   NI        0.631350    0.569557    0.468236     0.004307
NI2156   NI        0.662708    0.510309    0.433665     0.004307
NI2157   NI        0.661141    0.540226    0.469583     0.004307
NI2158   NI        0.705593    0.515821    0.472090     0.004307
NI2159   NI        0.678190    0.556665    0.432392     0.004307
NI2160   NI        0.717366    0.532496    0.431292     0.004307
NI2161   NI        0.737515    0.553148    0.478327     0.004307
AU2162   AU        0.757628    0.515118    0.471414     0.007504
AU2163   AU        0.758881    0.551641    0.438461     0.007504
AU2164   AU        0.787397    0.513690    0.434857     0.007504
AU2165   AU        0.793563    0.549599    0.474948     0.007504
AU2166   AU        0.821830    0.509276    0.471712     0.007504
AU2167   AU        0.820414    0.546020    0.432342     0.007504
NI2168   NI        0.862765    0.493637    0.394226     0.004307
NI2169   NI        0.043167    0.577019    0.478798     0.004307
NI2170   NI        0.035356    0.620599    0.464915     0.004307
AU2171   AU        0.078928    0.579665    0.447018     0.007504
AU2172   AU        0.078688    0.615402    0.472507     0.007504
AU2173   AU        0.116542    0.579830    0.478355     0.007504
AU2174   AU        0.118762    0.614505    0.443146     0.007504
AU2175   AU        0.154436    0.573917    0.444912     0.007504
AU2176   AU        0.152219    0.616275    0.472356     0.007504
NI2177   NI        0.194006    0.584652    0.476603     0.004307
AU2178   AU        0.189664    0.610713    0.438125     0.007504
NI2179   NI        0.230411    0.579725    0.431734     0.004307
NI2180   NI        0.225523    0.614158    0.482333     0.004307
NI2181   NI        0.268519    0.597407    0.461108     0.004307
NI2182   NI        0.262339    0.631387    0.436282     0.004307
NI2183   NI        0.307184    0.600712    0.437755     0.004307
NI2184   NI        0.298466    0.634801    0.470272     0.004307
NI2185   NI        0.312768    0.577805    0.473515     0.004307
NI2186   NI        0.333732    0.632802    0.445930     0.004307
NI2187   NI        0.342778    0.577528    0.443109     0.004307
AU2188   AU        0.370329    0.618005    0.463898     0.007504
NI2189   NI        0.391009    0.580105    0.472382     0.004307
NI2190   NI        0.416751    0.636013    0.402780     0.004307
NI2191   NI        0.449103    0.585248    0.449593     0.004307
NI2192   NI        0.408113    0.627503    0.445751     0.004307
AU2193   AU        0.470995    0.606005    0.478924     0.007504
NI2194   NI        0.477520    0.619876    0.433613     0.004307
NI2195   NI        0.497830    0.579333    0.446673     0.004307
NI2196   NI        0.519611    0.619770    0.469826     0.004307
NI2197   NI        0.539575    0.573301    0.470306     0.004307
NI2198   NI        0.539076    0.634902    0.432181     0.004307
NI2199   NI        0.566262    0.604014    0.431286     0.004307
NI2200   NI        0.565289    0.607037    0.472896     0.004307
NI2201   NI        0.611648    0.574948    0.505454     0.004307
NI2202   NI        0.591000    0.635400    0.444867     0.004307
NI2203   NI        0.641346    0.612657    0.433074     0.004307
NI2204   NI        0.644301    0.607189    0.486552     0.004307
NI2205   NI        0.701149    0.579665    0.485455     0.004307
AU2206   AU        0.684152    0.615641    0.460342     0.007504
AU2207   AU        0.729919    0.592393    0.440641     0.007504
AU2208   AU        0.727441    0.623541    0.480904     0.007504
AU2209   AU        0.762986    0.587472    0.480000     0.007504
AU2210   AU        0.763837    0.627193    0.444857     0.007504
AU2211   AU        0.790195    0.587126    0.437693     0.007504
AU2212   AU        0.802065    0.618017    0.475494     0.007504
NI2213   NI        0.828968    0.579267    0.469030     0.004307
NI2214   NI        0.839558    0.618091    0.455257     0.004307
NI2215   NI        0.069794    0.660536    0.445599     0.004307
NI2216   NI        0.073452    0.693087    0.483316     0.004307
AU2217   AU        0.116695    0.651776    0.468599     0.007504
NI2218   NI        0.107176    0.666828    0.421985     0.004307
AU2219   AU        0.151761    0.646946    0.433150     0.007504
AU2220   AU        0.152624    0.687903    0.468312     0.007504
AU2221   AU        0.187814    0.650309    0.470823     0.007504
AU2222   AU        0.185425    0.687082    0.429456     0.007504
AU2223   AU        0.222592    0.654794    0.435254     0.007504
AU2224   AU        0.223493    0.688662    0.471294     0.007504
AU2225   AU        0.260763    0.658280    0.475348     0.007504
AU2226   AU        0.258066    0.692740    0.436846     0.007504
NI2227   NI        0.301535    0.660253    0.435885     0.004307
NI2228   NI        0.291579    0.691156    0.475332     0.004307
NI2229   NI        0.352586    0.655111    0.477778     0.004307
AU2230   AU        0.334300    0.696095    0.446513     0.007504
AU2231   AU        0.373780    0.663301    0.442088     0.007504
NI2232   NI        0.379341    0.689356    0.494133     0.004307
AU2233   AU        0.401521    0.648208    0.488790     0.007504
NI2234   NI        0.406955    0.700530    0.451887     0.004307
NI2235   NI        0.443560    0.634297    0.464044     0.004307
NI2236   NI        0.447282    0.672978    0.447029     0.004307
NI2237   NI        0.490223    0.640851    0.507157     0.004307
NI2238   NI        0.472416    0.700860    0.425410     0.004307
AU2239   AU        0.494756    0.659534    0.442032     0.007504
NI2240   NI        0.480544    0.682423    0.483393     0.004307
NI2241   NI        0.525814    0.665707    0.471397     0.004307
NI2242   NI        0.524699    0.703935    0.436529     0.004307
NI2243   NI        0.560512    0.679668    0.439672     0.004307
NI2244   NI        0.591542    0.669854    0.468362     0.004307
NI2245   NI        0.634129    0.645414    0.455583     0.004307
NI2246   NI        0.621343    0.693666    0.445509     0.004307
NI2247   NI        0.676028    0.648748    0.434623     0.004307
AU2248   AU        0.652520    0.690048    0.484879     0.007504
AU2249   AU        0.690913    0.658558    0.484892     0.007504
AU2250   AU        0.688463    0.690530    0.449022     0.007504
AU2251   AU        0.717974    0.651370    0.439679     0.007504
AU2252   AU        0.713881    0.704023    0.488862     0.007504
NI2253   NI        0.776272    0.655133    0.479279     0.004307
AU2254   AU        0.751261    0.690891    0.450185     0.007504
NI2255   NI        0.796436    0.670774    0.436134     0.004307
NI2256   NI        0.785263    0.690258    0.502486     0.004307
NI2257   NI        0.105550    0.698454    0.452699     0.004307
AU2258   AU        0.146334    0.732638    0.442453     0.007504
NI2259   NI        0.150527    0.755156    0.478861     0.004307
AU2260   AU        0.185439    0.723921    0.470040     0.007504
AU2261   AU        0.186337    0.764025    0.439378     0.007504
AU2262   AU        0.218337    0.723763    0.433790     0.007504
AU2263   AU        0.226087    0.753883    0.470339     0.007504
AU2264   AU        0.263233    0.724536    0.475912     0.007504
AU2265   AU        0.254493    0.757864    0.435485     0.007504
AU2266   AU        0.293874    0.726101    0.439502     0.007504
AU2267   AU        0.296965    0.761163    0.479130     0.007504
AU2268   AU        0.327878    0.730678    0.478169     0.007504
AU2269   AU        0.329500    0.764732    0.439297     0.007504
AU2270   AU        0.368477    0.733446    0.446067     0.007504
AU2271   AU        0.351728    0.774972    0.475722     0.007504
NI2272   NI        0.379016    0.738997    0.489855     0.004307
AU2273   AU        0.392912    0.778334    0.446963     0.007504
NI2274   NI        0.451605    0.755776    0.436294     0.004307
NI2275   NI        0.459830    0.758273    0.478430     0.004307
NI2276   NI        0.455675    0.717727    0.464460     0.004307
AU2277   AU        0.492152    0.771428    0.409435     0.007504
NI2278   NI        0.523163    0.737997    0.470669     0.004307
NI2279   NI        0.488437    0.776605    0.452554     0.004307
NI2280   NI        0.548057    0.702293    0.479461     0.004307
NI2281   NI        0.553972    0.781756    0.439908     0.004307
NI2282   NI        0.582934    0.717769    0.446694     0.004307
AU2283   AU        0.582339    0.760108    0.475506     0.007504
AU2284   AU        0.618094    0.726436    0.480997     0.007504
AU2285   AU        0.621165    0.761574    0.443727     0.007504
AU2286   AU        0.653143    0.728641    0.448931     0.007504
AU2287   AU        0.646785    0.767516    0.485767     0.007504
AU2288   AU        0.680635    0.731528    0.482079     0.007504
AU2289   AU        0.684240    0.766204    0.451193     0.007504
AU2290   AU        0.717047    0.727665    0.444787     0.007504
NI2291   NI        0.714291    0.758697    0.486314     0.004307
NI2292   NI        0.752586    0.756114    0.455381     0.004307
NI2293   NI        0.165085    0.799525    0.408619     0.004307
AU2294   AU        0.225935    0.796506    0.440701     0.007504
AU2295   AU        0.262655    0.787502    0.475641     0.007504
NI2296   NI        0.248957    0.832136    0.460135     0.004307
AU2297   AU        0.290631    0.794447    0.437057     0.007504
NI2298   NI        0.291379    0.841074    0.448461     0.004307
AU2299   AU        0.319801    0.807033    0.471108     0.007504
NI2300   NI        0.337335    0.851963    0.439202     0.004307
AU2301   AU        0.358353    0.806867    0.436512     0.007504
NI2302   NI        0.360560    0.837219    0.477576     0.004307
NI2303   NI        0.395642    0.816498    0.470176     0.004307
NI2304   NI        0.400421    0.858622    0.447305     0.004307
AU2305   AU        0.439909    0.803206    0.461237     0.007504
NI2306   NI        0.427562    0.873357    0.521884     0.004307
AU2307   AU        0.485375    0.799335    0.489200     0.007504
NI2308   NI        0.481162    0.828788    0.452820     0.004307
AU2309   AU        0.517924    0.805330    0.441307     0.007504
NI2310   NI        0.495706    0.853194    0.484444     0.004307
AU2311   AU        0.532705    0.779868    0.478816     0.007504
NI2312   NI        0.527091    0.849207    0.427926     0.004307
AU2313   AU        0.586815    0.804303    0.431728     0.007504
AU2314   AU        0.549565    0.824211    0.468988     0.007504
NI2315   NI        0.610744    0.797978    0.496569     0.004307
NI2316   NI        0.617706    0.829064    0.412193     0.004307
NI2317   NI        0.641929    0.799465    0.445873     0.004307
NI2318   NI        0.682318    0.798358    0.492838     0.004307
NI2319   NI        0.378805    0.865917    0.404290     0.004307
NI2320   NI        0.413903    0.853726    0.486731     0.004307
NI2321   NI        0.425934    0.872096    0.413012     0.004307
NI2322   NI        0.445065    0.851641    0.453545     0.004307
NI2323   NI        0.494081    0.872234    0.396825     0.004307
NI2324   NI        0.265029    0.042168    0.522690     0.004307
NI2325   NI        0.270628    0.081736    0.559207     0.004307
NI2326   NI        0.303259    0.036254    0.478174     0.004307
NI2327   NI        0.317872    0.056507    0.518859     0.004307
NI2328   NI        0.395954    0.021217    0.536819     0.004307
NI2329   NI        0.432235    0.047117    0.552809     0.004307
NI2330   NI        0.396273    0.087970    0.568478     0.004307
AU2331   AU        0.451453    0.060228    0.515131     0.007504
NI2332   NI        0.504449    0.049311    0.562664     0.004307
NI2333   NI        0.528586    0.029362    0.523651     0.004307
NI2334   NI        0.573927    0.065571    0.526721     0.004307
NI2335   NI        0.661849    0.040944    0.467818     0.004307
NI2336   NI        0.170505    0.135998    0.499045     0.004307
NI2337   NI        0.195346    0.103864    0.482553     0.004307
NI2338   NI        0.203636    0.116831    0.528208     0.004307
NI2339   NI        0.253791    0.121202    0.549175     0.004307
AU2340   AU        0.245158    0.130600    0.506751     0.007504
AU2341   AU        0.289457    0.100965    0.521805     0.007504
AU2342   AU        0.295543    0.128189    0.558337     0.007504
NI2343   NI        0.337668    0.088732    0.534404     0.004307
AU2344   AU        0.328488    0.132538    0.520255     0.007504
AU2345   AU        0.368534    0.075039    0.505714     0.007504
AU2346   AU        0.375991    0.116256    0.529426     0.007504
NI2347   NI        0.358917    0.057300    0.558897     0.004307
AU2348   AU        0.415107    0.136121    0.518904     0.007504
AU2349   AU        0.412749    0.084610    0.521620     0.007504
AU2350   AU        0.429218    0.116205    0.566884     0.007504
AU2351   AU        0.463788    0.081610    0.558322     0.007504
AU2352   AU        0.458153    0.110510    0.523047     0.007504
AU2353   AU        0.500119    0.070859    0.519834     0.007504
AU2354   AU        0.505435    0.109308    0.545555     0.007504
NI2355   NI        0.537030    0.077724    0.551147     0.004307
AU2356   AU        0.546102    0.087491    0.504561     0.007504
NI2357   NI        0.570826    0.061783    0.480678     0.004307
AU2358   AU        0.579319    0.113835    0.536527     0.007504
NI2359   NI        0.626688    0.089601    0.552375     0.004307
AU2360   AU        0.624017    0.122160    0.517738     0.007504
NI2361   NI        0.666445    0.098858    0.527528     0.004307
AU2362   AU        0.650390    0.134271    0.558874     0.007504
NI2363   NI        0.697936    0.133719    0.523439     0.004307
AU2364   AU        0.107683    0.224947    0.523563     0.007504
NI2365   NI        0.127247    0.148564    0.519676     0.004307
NI2366   NI        0.146099    0.206504    0.553377     0.004307
AU2367   AU        0.195812    0.149579    0.554507     0.007504
AU2368   AU        0.164682    0.178852    0.521186     0.007504
AU2369   AU        0.209544    0.162817    0.506695     0.007504
AU2370   AU        0.207932    0.197371    0.544095     0.007504
AU2371   AU        0.244948    0.162892    0.544243     0.007504
AU2372   AU        0.251492    0.190937    0.504872     0.007504
AU2373   AU        0.285828    0.154281    0.514753     0.007504
AU2374   AU        0.283394    0.190275    0.541947     0.007504
AU2375   AU        0.328419    0.165229    0.556755     0.007504
AU2376   AU        0.324675    0.183363    0.516743     0.007504
AU2377   AU        0.368616    0.162322    0.519738     0.007504
NI2378   NI        0.359045    0.195496    0.555732     0.004307
AU2379   AU        0.393443    0.153752    0.561237     0.007504
NI2380   NI        0.402600    0.199619    0.533051     0.004307
NI2381   NI        0.436446    0.186489    0.510953     0.004307
AU2382   AU        0.436057    0.165053    0.551146     0.007504
AU2383   AU        0.489661    0.148699    0.531448     0.007504
NI2384   NI        0.474346    0.195753    0.491569     0.004307
NI2385   NI        0.509009    0.167685    0.492167     0.004307
NI2386   NI        0.518922    0.187213    0.530172     0.004307
AU2387   AU        0.538619    0.143945    0.530234     0.007504
AU2388   AU        0.547721    0.184047    0.494308     0.007504
AU2389   AU        0.585833    0.149076    0.500094     0.007504
AU2390   AU        0.570175    0.181281    0.537307     0.007504
AU2391   AU        0.610694    0.151774    0.546465     0.007504
AU2392   AU        0.616856    0.186640    0.510673     0.007504
AU2393   AU        0.657107    0.152254    0.514296     0.007504
AU2394   AU        0.647477    0.187295    0.549281     0.007504
AU2395   AU        0.691143    0.165964    0.553967     0.007504
AU2396   AU        0.683314    0.189424    0.514134     0.007504
NI2397   NI        0.749322    0.144429    0.514118     0.004307
NI2398   NI        0.729331    0.184562    0.528532     0.004307
NI2399   NI        0.808110    0.197102    0.479968     0.004307
NI2400   NI        0.079484    0.248329    0.498013     0.004307
NI2401   NI        0.066758    0.213782    0.479485     0.004307
AU2402   AU        0.093738    0.270235    0.544047     0.007504
NI2403   NI        0.105506    0.227440    0.567714     0.004307
AU2404   AU        0.122868    0.266519    0.501189     0.007504
AU2405   AU        0.153640    0.229260    0.506647     0.007504
AU2406   AU        0.139047    0.256057    0.551859     0.007504
AU2407   AU        0.181811    0.236238    0.543526     0.007504
NI2408   NI        0.185958    0.263798    0.505683     0.004307
AU2409   AU        0.222551    0.225774    0.502532     0.007504
AU2410   AU        0.225045    0.258591    0.539376     0.007504
AU2411   AU        0.250592    0.224761    0.542824     0.007504
NI2412   NI        0.259496    0.253825    0.504235     0.004307
NI2413   NI        0.290223    0.221787    0.511496     0.004307
NI2414   NI        0.287742    0.262131    0.543445     0.004307
NI2415   NI        0.323623    0.218574    0.545332     0.004307
AU2416   AU        0.327540    0.253855    0.511033     0.007504
AU2417   AU        0.359346    0.218646    0.512349     0.007504
NI2418   NI        0.364477    0.250983    0.540487     0.004307
NI2419   NI        0.415972    0.245765    0.545522     0.004307
NI2420   NI        0.401645    0.244069    0.506526     0.004307
NI2421   NI        0.456271    0.228572    0.511124     0.004307
NI2422   NI        0.461718    0.264077    0.544811     0.004307
NI2423   NI        0.474772    0.198983    0.546440     0.004307
NI2424   NI        0.488583    0.261826    0.491328     0.004307
AU2425   AU        0.520315    0.223413    0.492187     0.007504
NI2426   NI        0.510068    0.242997    0.532827     0.004307
NI2427   NI        0.544075    0.220503    0.534503     0.004307
AU2428   AU        0.546292    0.260240    0.500397     0.007504
AU2429   AU        0.581506    0.221486    0.505897     0.007504
NI2430   NI        0.580423    0.256108    0.534332     0.004307
AU2431   AU        0.612635    0.225349    0.545542     0.007504
AU2432   AU        0.614847    0.262565    0.510934     0.007504
AU2433   AU        0.649931    0.224947    0.514351     0.007504
AU2434   AU        0.646895    0.259348    0.551140     0.007504
AU2435   AU        0.681905    0.222047    0.553439     0.007504
AU2436   AU        0.684193    0.259851    0.516474     0.007504
AU2437   AU        0.713887    0.221136    0.514003     0.007504
AU2438   AU        0.712844    0.253417    0.554181     0.007504
AU2439   AU        0.745728    0.218802    0.552900     0.007504
AU2440   AU        0.740538    0.255441    0.514466     0.007504
AU2441   AU        0.774565    0.220207    0.512450     0.007504
AU2442   AU        0.775114    0.257149    0.550262     0.007504
NI2443   NI        0.819230    0.275119    0.541852     0.004307
NI2444   NI        0.041366    0.312963    0.492871     0.004307
NI2445   NI        0.040394    0.353234    0.520231     0.004307
AU2446   AU        0.090233    0.308267    0.512536     0.007504
AU2447   AU        0.074647    0.352800    0.556524     0.007504
AU2448   AU        0.106840    0.316794    0.560094     0.007504
AU2449   AU        0.122028    0.342526    0.510178     0.007504
AU2450   AU        0.135049    0.298087    0.528386     0.007504
NI2451   NI        0.159010    0.333100    0.543791     0.004307
AU2452   AU        0.181421    0.288333    0.547893     0.007504
NI2453   NI        0.191314    0.327888    0.507374     0.004307
NI2454   NI        0.222240    0.291940    0.503989     0.004307
AU2455   AU        0.219539    0.318278    0.540976     0.007504
NI2456   NI        0.253666    0.289534    0.547458     0.004307
NI2457   NI        0.235443    0.329945    0.489803     0.004307
NI2458   NI        0.291686    0.283887    0.502744     0.004307
AU2459   AU        0.290154    0.313379    0.540260     0.007504
NI2460   NI        0.331218    0.283900    0.550618     0.004307
NI2461   NI        0.328006    0.305459    0.509102     0.004307
NI2462   NI        0.369961    0.289769    0.492390     0.004307
NI2463   NI        0.380509    0.310772    0.529218     0.004307
NI2464   NI        0.420617    0.287168    0.542502     0.004307
NI2465   NI        0.401194    0.340484    0.497501     0.004307
NI2466   NI        0.435926    0.269064    0.506825     0.004307
NI2467   NI        0.436014    0.329157    0.524534     0.004307
NI2468   NI        0.482524    0.306954    0.571076     0.004307
NI2469   NI        0.467906    0.304302    0.516412     0.004307
AU2470   AU        0.511018    0.298202    0.494062     0.007504
NI2471   NI        0.489133    0.335696    0.536478     0.004307
AU2472   AU        0.523228    0.309345    0.539365     0.007504
AU2473   AU        0.542745    0.331575    0.499266     0.007504
AU2474   AU        0.574907    0.297835    0.512623     0.007504
AU2475   AU        0.562771    0.316143    0.559736     0.007504
NI2476   NI        0.611244    0.304467    0.538642     0.004307
NI2477   NI        0.629790    0.339876    0.500947     0.004307
AU2478   AU        0.650310    0.295773    0.511794     0.007504
NI2479   NI        0.651717    0.331865    0.548322     0.004307
AU2480   AU        0.684316    0.293581    0.551828     0.007504
AU2481   AU        0.681097    0.337846    0.504720     0.007504
AU2482   AU        0.715830    0.301381    0.503948     0.007504
AU2483   AU        0.724972    0.338309    0.536093     0.007504
AU2484   AU        0.743036    0.294018    0.544349     0.007504
AU2485   AU        0.763810    0.326031    0.501227     0.007504
AU2486   AU        0.779043    0.283320    0.511427     0.007504
AU2487   AU        0.775235    0.333107    0.544333     0.007504
NI2488   NI        0.818420    0.322802    0.561358     0.004307
NI2489   NI        0.810151    0.312415    0.512730     0.004307
NI2490   NI        0.032745    0.366466    0.572593     0.004307
NI2491   NI        0.039370    0.394439    0.532975     0.004307
AU2492   AU        0.091052    0.385545    0.522861     0.007504
AU2493   AU        0.070343    0.400127    0.566550     0.007504
AU2494   AU        0.124604    0.368492    0.553017     0.007504
AU2495   AU        0.130197    0.416875    0.511735     0.007504
NI2496   NI        0.156657    0.370307    0.502477     0.004307
NI2497   NI        0.163973    0.437601    0.549852     0.004307
NI2498   NI        0.195787    0.355839    0.541198     0.004307
NI2499   NI        0.165086    0.392324    0.545074     0.004307
NI2500   NI        0.235089    0.377478    0.489302     0.004307
NI2501   NI        0.222343    0.389442    0.547158     0.004307
AU2502   AU        0.257439    0.350558    0.536154     0.007504
NI2503   NI        0.260559    0.392305    0.525567     0.004307
NI2504   NI        0.304203    0.353767    0.523495     0.004307
NI2505   NI        0.307842    0.410358    0.572417     0.004307
NI2506   NI        0.330039    0.376991    0.550414     0.004307
NI2507   NI        0.304934    0.402812    0.519515     0.004307
AU2508   AU        0.352111    0.344086    0.515960     0.007504
NI2509   NI        0.386108    0.380380    0.512446     0.004307
NI2510   NI        0.397419    0.346355    0.559666     0.004307
NI2511   NI        0.418475    0.414995    0.514400     0.004307
NI2512   NI        0.434333    0.374994    0.515350     0.004307
NI2513   NI        0.416323    0.388974    0.549957     0.004307
NI2514   NI        0.453423    0.406574    0.556517     0.004307
NI2515   NI        0.463020    0.402781    0.506547     0.004307
NI2516   NI        0.492871    0.371132    0.507168     0.004307
NI2517   NI        0.497592    0.383546    0.556070     0.004307
NI2518   NI        0.534550    0.358098    0.538191     0.004307
NI2519   NI        0.552475    0.405873    0.538584     0.004307
NI2520   NI        0.566887    0.371616    0.513009     0.004307
NI2521   NI        0.594978    0.393513    0.540489     0.004307
NI2522   NI        0.593824    0.344371    0.534380     0.004307
NI2523   NI        0.633727    0.376439    0.541598     0.004307
AU2524   AU        0.660085    0.383410    0.496381     0.007504
AU2525   AU        0.654255    0.413861    0.535661     0.007504
AU2526   AU        0.683913    0.372105    0.542094     0.007504
AU2527   AU        0.693266    0.419067    0.498506     0.007504
AU2528   AU        0.712840    0.375330    0.501166     0.007504
AU2529   AU        0.720247    0.407938    0.539273     0.007504
AU2530   AU        0.755448    0.374571    0.523546     0.007504
AU2531   AU        0.745478    0.418760    0.498296     0.007504
AU2532   AU        0.803109    0.359053    0.521287     0.007504
AU2533   AU        0.789142    0.402676    0.541268     0.007504
NI2534   NI        0.848504    0.359971    0.494116     0.004307
NI2535   NI        0.845110    0.400497    0.512848     0.004307
NI2536   NI        0.016899    0.427995    0.515263     0.004307
NI2537   NI        0.011259    0.443755    0.555376     0.004307
NI2538   NI        0.038725    0.468123    0.532209     0.004307
AU2539   AU        0.066955    0.426437    0.526329     0.007504
AU2540   AU        0.087333    0.467654    0.544234     0.007504
AU2541   AU        0.103074    0.458182    0.505828     0.007504
AU2542   AU        0.114038    0.501045    0.525691     0.007504
NI2543   NI        0.145498    0.462632    0.516631     0.004307
AU2544   AU        0.135476    0.478870    0.556666     0.007504
NI2545   NI        0.198933    0.474927    0.545917     0.004307
NI2546   NI        0.188080    0.458474    0.499891     0.004307
NI2547   NI        0.214018    0.436413    0.524499     0.004307
NI2548   NI        0.237195    0.479354    0.581927     0.004307
NI2549   NI        0.265279    0.429153    0.550462     0.004307
NI2550   NI        0.264030    0.491071    0.508921     0.004307
NI2551   NI        0.290875    0.416199    0.481452     0.004307
NI2552   NI        0.252264    0.468740    0.543692     0.004307
NI2553   NI        0.332647    0.433312    0.541196     0.004307
NI2554   NI        0.308240    0.442810    0.507483     0.004307
NI2555   NI        0.381396    0.437918    0.521866     0.004307
NI2556   NI        0.361250    0.473801    0.519729     0.004307
NI2557   NI        0.391774    0.484466    0.551792     0.004307
NI2558   NI        0.402251    0.487367    0.503176     0.004307
NI2559   NI        0.435438    0.454224    0.497604     0.004307
AU2560   AU        0.444010    0.492261    0.521907     0.007504
NI2561   NI        0.460046    0.442577    0.529358     0.004307
AU2562   AU        0.490636    0.471812    0.512086     0.007504
NI2563   NI        0.499743    0.426866    0.527175     0.004307
NI2564   NI        0.500005    0.461146    0.552457     0.004307
NI2565   NI        0.537158    0.450008    0.529741     0.004307
NI2566   NI        0.551057    0.471116    0.496630     0.004307
NI2567   NI        0.568479    0.431354    0.496930     0.004307
NI2568   NI        0.594972    0.467680    0.568883     0.004307
NI2569   NI        0.588951    0.437669    0.538681     0.004307
NI2570   NI        0.591993    0.481504    0.496694     0.004307
NI2571   NI        0.660149    0.447888    0.500842     0.004307
NI2572   NI        0.660616    0.490291    0.552947     0.004307
AU2573   AU        0.687878    0.447381    0.541803     0.007504
NI2574   NI        0.682248    0.503375    0.516673     0.004307
NI2575   NI        0.709620    0.464695    0.509299     0.004307
AU2576   AU        0.725159    0.482526    0.548480     0.007504
AU2577   AU        0.753980    0.440520    0.542618     0.007504
AU2578   AU        0.754064    0.474126    0.505403     0.007504
AU2579   AU        0.793380    0.441350    0.506863     0.007504
AU2580   AU        0.787228    0.475720    0.543643     0.007504
NI2581   NI        0.834494    0.429492    0.542688     0.004307
NI2582   NI        0.825472    0.468545    0.525708     0.004307
NI2583   NI        0.869637    0.432399    0.478446     0.004307
NI2584   NI        0.056555    0.506591    0.545488     0.004307
NI2585   NI        0.048964    0.541051    0.521100     0.004307
AU2586   AU        0.069332    0.494812    0.505053     0.007504
AU2587   AU        0.087902    0.541387    0.538528     0.007504
AU2588   AU        0.096345    0.511046    0.573815     0.007504
AU2589   AU        0.129711    0.540579    0.508314     0.007504
NI2590   NI        0.173779    0.497035    0.514310     0.004307
AU2591   AU        0.134198    0.536637    0.555562     0.007504
NI2592   NI        0.173488    0.510911    0.560221     0.004307
NI2593   NI        0.175584    0.548225    0.524441     0.004307
NI2594   NI        0.207339    0.535064    0.502722     0.004307
NI2595   NI        0.209701    0.546092    0.552972     0.004307
NI2596   NI        0.233043    0.503947    0.537908     0.004307
NI2597   NI        0.248841    0.552458    0.538844     0.004307
NI2598   NI        0.303968    0.477935    0.529407     0.004307
NI2599   NI        0.280117    0.530921    0.520642     0.004307
NI2600   NI        0.305694    0.523871    0.558383     0.004307
NI2601   NI        0.333877    0.543019    0.499861     0.004307
NI2602   NI        0.354961    0.514746    0.530290     0.004307
NI2603   NI        0.363754    0.561828    0.542624     0.004307
NI2604   NI        0.402798    0.529230    0.535375     0.004307
NI2605   NI        0.381445    0.543019    0.498001     0.004307
NI2606   NI        0.424216    0.529302    0.498286     0.004307
AU2607   AU        0.450562    0.540198    0.537044     0.007504
AU2608   AU        0.488227    0.510190    0.544178     0.007504
AU2609   AU        0.450389    0.562951    0.489696     0.007504
AU2610   AU        0.521641    0.504267    0.505810     0.007504
AU2611   AU        0.497500    0.556849    0.533656     0.007504
AU2612   AU        0.533818    0.522657    0.551873     0.007504
AU2613   AU        0.542734    0.544930    0.509514     0.007504
AU2614   AU        0.574330    0.509116    0.523368     0.007504
NI2615   NI        0.563727    0.557296    0.546388     0.004307
NI2616   NI        0.617975    0.496003    0.547600     0.004307
AU2617   AU        0.604761    0.545086    0.539690     0.007504
NI2618   NI        0.642647    0.531557    0.506784     0.004307
NI2619   NI        0.653136    0.553425    0.544674     0.004307
AU2620   AU        0.698354    0.522146    0.552175     0.007504
NI2621   NI        0.694333    0.543900    0.506136     0.004307
AU2622   AU        0.726607    0.516844    0.510898     0.007504
AU2623   AU        0.732486    0.552676    0.547217     0.007504
AU2624   AU        0.761122    0.516300    0.549642     0.007504
AU2625   AU        0.764314    0.553043    0.511456     0.007504
AU2626   AU        0.788967    0.510292    0.509033     0.007504
AU2627   AU        0.797874    0.550376    0.548951     0.007504
NI2628   NI        0.824624    0.508192    0.542402     0.004307
AU2629   AU        0.828729    0.542081    0.506330     0.007504
NI2630   NI        0.058418    0.623990    0.573148     0.004307
NI2631   NI        0.044142    0.618871    0.508154     0.004307
AU2632   AU        0.077983    0.581987    0.511534     0.007504
NI2633   NI        0.082698    0.621985    0.534112     0.004307
AU2634   AU        0.116404    0.582878    0.542093     0.007504
AU2635   AU        0.115692    0.617997    0.506418     0.007504
AU2636   AU        0.156460    0.586326    0.511045     0.007504
AU2637   AU        0.146662    0.623410    0.545209     0.007504
AU2638   AU        0.180099    0.589546    0.554931     0.007504
AU2639   AU        0.187277    0.620819    0.512175     0.007504
NI2640   NI        0.218590    0.579471    0.521712     0.004307
AU2641   AU        0.216614    0.620786    0.554218     0.007504
AU2642   AU        0.266742    0.602175    0.543806     0.007504
NI2643   NI        0.263594    0.625350    0.510951     0.004307
NI2644   NI        0.272873    0.568321    0.500901     0.004307
AU2645   AU        0.301925    0.637557    0.550036     0.007504
NI2646   NI        0.310379    0.566480    0.536624     0.004307
NI2647   NI        0.304516    0.613947    0.511337     0.004307
NI2648   NI        0.343749    0.591758    0.504456     0.004307
NI2649   NI        0.366386    0.606175    0.556319     0.004307
NI2650   NI        0.400775    0.576124    0.559042     0.004307
NI2651   NI        0.402999    0.628303    0.534235     0.004307
NI2652   NI        0.420318    0.606675    0.489406     0.004307
NI2653   NI        0.427063    0.585982    0.528149     0.004307
AU2654   AU        0.462552    0.578262    0.565869     0.007504
AU2655   AU        0.471704    0.597863    0.522120     0.007504
AU2656   AU        0.497693    0.571131    0.489095     0.007504
NI2657   NI        0.528194    0.630118    0.554947     0.004307
NI2658   NI        0.520753    0.597919    0.519702     0.004307
NI2659   NI        0.531195    0.639519    0.512170     0.004307
NI2660   NI        0.568469    0.586754    0.514977     0.004307
NI2661   NI        0.567267    0.627684    0.530800     0.004307
NI2662   NI        0.602895    0.595220    0.544181     0.004307
NI2663   NI        0.598580    0.631123    0.490927     0.004307
NI2664   NI        0.661562    0.571677    0.506310     0.004307
AU2665   AU        0.650779    0.608440    0.540900     0.007504
AU2666   AU        0.692055    0.575544    0.547962     0.007504
AU2667   AU        0.689604    0.612282    0.511560     0.007504
AU2668   AU        0.730641    0.589318    0.519494     0.007504
AU2669   AU        0.730075    0.627757    0.537935     0.007504
AU2670   AU        0.768412    0.587644    0.552493     0.007504
AU2671   AU        0.767878    0.622515    0.515316     0.007504
AU2672   AU        0.801149    0.583172    0.512818     0.007504
NI2673   NI        0.801291    0.622170    0.546301     0.004307
NI2674   NI        0.836138    0.582312    0.542305     0.004307
NI2675   NI        0.843333    0.605632    0.499347     0.004307
NI2676   NI        0.078279    0.650791    0.497123     0.004307
AU2677   AU        0.108227    0.658752    0.533488     0.007504
NI2678   NI        0.118047    0.692973    0.500169     0.004307
AU2679   AU        0.150212    0.653014    0.505251     0.007504
AU2680   AU        0.148610    0.690912    0.542886     0.007504
AU2681   AU        0.182042    0.658456    0.545704     0.007504
AU2682   AU        0.186589    0.689881    0.506688     0.007504
AU2683   AU        0.222184    0.656206    0.512287     0.007504
AU2684   AU        0.220689    0.691587    0.547716     0.007504
AU2685   AU        0.252583    0.653682    0.550816     0.007504
AU2686   AU        0.254710    0.690814    0.511503     0.007504
NI2687   NI        0.296737    0.668831    0.514844     0.004307
AU2688   AU        0.288191    0.688582    0.553964     0.007504
NI2689   NI        0.336103    0.674566    0.549563     0.004307
NI2690   NI        0.329388    0.691854    0.500776     0.004307
NI2691   NI        0.349369    0.631074    0.527644     0.004307
NI2692   NI        0.402646    0.678651    0.529678     0.004307
NI2693   NI        0.371557    0.652977    0.560337     0.004307
NI2694   NI        0.440111    0.677271    0.491631     0.004307
NI2695   NI        0.445537    0.634497    0.516503     0.004307
NI2696   NI        0.423748    0.714036    0.544963     0.004307
NI2697   NI        0.478525    0.633941    0.552865     0.004307
NI2698   NI        0.470143    0.713333    0.514265     0.004307
NI2699   NI        0.466534    0.676380    0.536471     0.004307
NI2700   NI        0.505971    0.685447    0.567572     0.004307
NI2701   NI        0.545996    0.671110    0.546670     0.004307
NI2702   NI        0.561076    0.711820    0.544826     0.004307
NI2703   NI        0.563483    0.674788    0.506061     0.004307
NI2704   NI        0.585320    0.679986    0.552627     0.004307
NI2705   NI        0.612988    0.643388    0.536840     0.004307
NI2706   NI        0.606853    0.679988    0.507539     0.004307
NI2707   NI        0.646194    0.644739    0.506724     0.004307
AU2708   AU        0.644733    0.682854    0.541787     0.007504
AU2709   AU        0.685850    0.648950    0.533930     0.007504
AU2710   AU        0.685793    0.701590    0.524493     0.007504
AU2711   AU        0.736768    0.664799    0.507595     0.007504
NI2712   NI        0.741094    0.705234    0.544942     0.004307
NI2713   NI        0.775099    0.658788    0.538796     0.004307
NI2714   NI        0.753787    0.722681    0.486869     0.004307
NI2715   NI        0.823403    0.663509    0.482121     0.004307
NI2716   NI        0.146274    0.722389    0.508710     0.004307
AU2717   AU        0.184274    0.723793    0.543211     0.007504
NI2718   NI        0.164352    0.771340    0.526340     0.004307
AU2719   AU        0.221102    0.726881    0.509650     0.007504
NI2720   NI        0.213633    0.768921    0.529906     0.004307
AU2721   AU        0.255617    0.724352    0.548693     0.007504
AU2722   AU        0.256451    0.760254    0.511459     0.007504
AU2723   AU        0.294780    0.723526    0.517201     0.007504
AU2724   AU        0.290363    0.760163    0.552365     0.007504
AU2725   AU        0.322881    0.723833    0.557577     0.007504
AU2726   AU        0.332593    0.760428    0.523178     0.007504
NI2727   NI        0.383818    0.723465    0.532538     0.004307
AU2728   AU        0.360915    0.756030    0.563499     0.007504
NI2729   NI        0.426485    0.742392    0.507996     0.004307
AU2730   AU        0.396344    0.780722    0.500709     0.007504
NI2731   NI        0.418765    0.747462    0.467404     0.004307
AU2732   AU        0.456740    0.752576    0.542571     0.007504
AU2733   AU        0.473718    0.716688    0.564918     0.007504
AU2734   AU        0.498815    0.759352    0.513461     0.007504
NI2735   NI        0.509883    0.712322    0.503627     0.004307
AU2736   AU        0.489001    0.765451    0.569703     0.007504
AU2737   AU        0.517467    0.729833    0.545869     0.007504
AU2738   AU        0.549410    0.744226    0.507727     0.007504
NI2739   NI        0.585063    0.718688    0.506508     0.004307
AU2740   AU        0.574325    0.755602    0.548505     0.007504
AU2741   AU        0.610753    0.719153    0.547457     0.007504
AU2742   AU        0.609413    0.760036    0.519103     0.007504
AU2743   AU        0.647016    0.725563    0.518629     0.007504
NI2744   NI        0.641851    0.788724    0.532594     0.004307
AU2745   AU        0.703709    0.729702    0.561105     0.007504
AU2746   AU        0.678389    0.752455    0.527086     0.007504
NI2747   NI        0.731254    0.748872    0.525946     0.004307
NI2748   NI        0.188531    0.771085    0.488667     0.004307
NI2749   NI        0.250098    0.810422    0.518874     0.004307
NI2750   NI        0.281572    0.823602    0.487619     0.004307
AU2751   AU        0.294873    0.793173    0.514592     0.007504
NI2752   NI        0.279831    0.817027    0.557397     0.004307
AU2753   AU        0.327810    0.793923    0.555317     0.007504
NI2754   NI        0.334800    0.825709    0.513790     0.004307
AU2755   AU        0.368470    0.797873    0.536166     0.007504
NI2756   NI        0.360950    0.843155    0.544843     0.004307
AU2757   AU        0.406494    0.767777    0.547368     0.007504
AU2758   AU        0.452015    0.834983    0.502717     0.007504
AU2759   AU        0.442538    0.790313    0.514222     0.007504
NI2760   NI        0.445976    0.821255    0.556855     0.004307
AU2761   AU        0.485536    0.803907    0.537727     0.007504
NI2762   NI        0.476927    0.850986    0.535933     0.004307
AU2763   AU        0.526299    0.821712    0.508950     0.007504
NI2764   NI        0.541621    0.837317    0.548437     0.004307
AU2765   AU        0.526052    0.777608    0.540173     0.007504
NI2766   NI        0.530840    0.873052    0.509452     0.004307
AU2767   AU        0.567144    0.790290    0.515102     0.007504
NI2768   NI        0.625094    0.801204    0.578340     0.004307
NI2769   NI        0.558998    0.796366    0.563869     0.004307
NI2770   NI        0.579652    0.833804    0.507909     0.004307
NI2771   NI        0.626860    0.840178    0.513848     0.004307
NI2772   NI        0.402680    0.864830    0.556763     0.004307
NI2773   NI        0.339773    0.042372    0.595038     0.004307
NI2774   NI        0.341553    0.008322    0.634072     0.004307
NI2775   NI        0.397908    0.049221    0.590795     0.004307
NI2776   NI        0.425779    0.046556    0.623834     0.004307
NI2777   NI        0.460614    0.033111    0.592753     0.004307
NI2778   NI        0.513924    0.028978    0.601989     0.004307
NI2779   NI        0.515519    0.078771    0.593020     0.004307
NI2780   NI        0.156214    0.122820    0.545836     0.004307
NI2781   NI        0.195292    0.114044    0.592059     0.004307
NI2782   NI        0.238112    0.099453    0.622579     0.004307
NI2783   NI        0.264692    0.118193    0.591649     0.004307
NI2784   NI        0.312523    0.091361    0.582097     0.004307
NI2785   NI        0.290504    0.096245    0.622299     0.004307
NI2786   NI        0.331291    0.102031    0.635312     0.004307
AU2787   AU        0.344650    0.121979    0.569341     0.007504
NI2788   NI        0.361244    0.078735    0.595065     0.004307
AU2789   AU        0.372633    0.116452    0.655368     0.007504
NI2790   NI        0.400147    0.090320    0.627420     0.004307
AU2791   AU        0.383137    0.124288    0.601982     0.007504
NI2792   NI        0.379780    0.046334    0.630712     0.004307
AU2793   AU        0.433284    0.115893    0.616056     0.007504
AU2794   AU        0.474428    0.093757    0.600063     0.007504
AU2795   AU        0.470224    0.132285    0.570501     0.007504
NI2796   NI        0.434809    0.069747    0.591921     0.004307
AU2797   AU        0.508586    0.128179    0.607214     0.007504
NI2798   NI        0.564372    0.082762    0.621920     0.004307
AU2799   AU        0.544780    0.116888    0.573536     0.007504
NI2800   NI        0.581929    0.083871    0.577674     0.004307
AU2801   AU        0.577484    0.127655    0.611804     0.007504
NI2802   NI        0.639127    0.112967    0.601215     0.004307
NI2803   NI        0.606234    0.120117    0.578421     0.004307
NI2804   NI        0.669945    0.143512    0.650657     0.004307
NI2805   NI        0.682410    0.106117    0.612996     0.004307
NI2806   NI        0.117545    0.163923    0.561095     0.004307
NI2807   NI        0.162299    0.150265    0.584281     0.004307
NI2808   NI        0.156070    0.187984    0.610863     0.004307
NI2809   NI        0.200341    0.145039    0.630123     0.004307
AU2810   AU        0.197188    0.183880    0.592593     0.007504
AU2811   AU        0.229416    0.144792    0.589621     0.007504
AU2812   AU        0.233388    0.176286    0.625855     0.007504
AU2813   AU        0.266976    0.140513    0.627736     0.007504
AU2814   AU        0.245751    0.194973    0.582357     0.007504
AU2815   AU        0.279018    0.162267    0.578823     0.007504
AU2816   AU        0.284834    0.190372    0.618591     0.007504
AU2817   AU        0.314882    0.138886    0.604902     0.007504
NI2818   NI        0.321860    0.189107    0.596883     0.004307
AU2819   AU        0.357745    0.164863    0.594903     0.007504
AU2820   AU        0.368107    0.209334    0.607310     0.007504
NI2821   NI        0.387390    0.159550    0.624803     0.004307
AU2822   AU        0.405564    0.201063    0.573582     0.007504
AU2823   AU        0.423721    0.155970    0.593380     0.007504
NI2824   NI        0.425628    0.196398    0.619856     0.004307
AU2825   AU        0.464548    0.157247    0.613530     0.007504
NI2826   NI        0.450191    0.196510    0.585704     0.004307
AU2827   AU        0.517267    0.157693    0.572040     0.007504
AU2828   AU        0.497366    0.192573    0.606070     0.007504
AU2829   AU        0.541192    0.161240    0.615995     0.007504
NI2830   NI        0.537455    0.196047    0.575121     0.004307
AU2831   AU        0.568054    0.155669    0.573633     0.007504
AU2832   AU        0.581266    0.182569    0.619253     0.007504
AU2833   AU        0.618961    0.149891    0.623966     0.007504
AU2834   AU        0.601825    0.190986    0.574234     0.007504
NI2835   NI        0.663743    0.147698    0.605471     0.004307
AU2836   AU        0.655734    0.186823    0.630452     0.007504
NI2837   NI        0.701987    0.151766    0.591324     0.004307
AU2838   AU        0.675821    0.191012    0.589751     0.007504
NI2839   NI        0.726608    0.142803    0.556926     0.004307
NI2840   NI        0.731041    0.181982    0.571269     0.004307
NI2841   NI        0.771334    0.181803    0.542480     0.004307
NI2842   NI        0.068728    0.323948    0.597451     0.004307
NI2843   NI        0.095003    0.234050    0.618470     0.004307
AU2844   AU        0.104325    0.273982    0.592081     0.007504
NI2845   NI        0.141530    0.224505    0.595668     0.004307
AU2846   AU        0.142033    0.262528    0.619994     0.007504
AU2847   AU        0.178424    0.222801    0.622111     0.007504
AU2848   AU        0.180477    0.257887    0.585577     0.007504
AU2849   AU        0.215164    0.229199    0.583063     0.007504
AU2850   AU        0.220644    0.250882    0.619519     0.007504
AU2851   AU        0.255439    0.224670    0.614484     0.007504
AU2852   AU        0.254758    0.258228    0.579227     0.007504
AU2853   AU        0.287801    0.225046    0.578237     0.007504
AU2854   AU        0.286995    0.258128    0.617402     0.007504
AU2855   AU        0.319605    0.227781    0.617127     0.007504
NI2856   NI        0.331035    0.248487    0.575511     0.004307
NI2857   NI        0.383366    0.243506    0.577509     0.004307
NI2858   NI        0.352630    0.262592    0.616281     0.004307
NI2859   NI        0.393301    0.243315    0.622661     0.004307
NI2860   NI        0.412185    0.272328    0.586613     0.004307
NI2861   NI        0.448261    0.235960    0.570830     0.004307
NI2862   NI        0.439590    0.272198    0.631482     0.004307
NI2863   NI        0.467602    0.237483    0.621754     0.004307
NI2864   NI        0.476671    0.268229    0.594862     0.004307
NI2865   NI        0.502759    0.238304    0.588047     0.004307
NI2866   NI        0.504742    0.264932    0.635187     0.004307
NI2867   NI        0.545720    0.215517    0.615848     0.004307
NI2868   NI        0.547067    0.274251    0.551407     0.004307
NI2869   NI        0.568395    0.227992    0.568157     0.004307
NI2870   NI        0.547759    0.257505    0.600488     0.004307
AU2871   AU        0.594837    0.230930    0.603836     0.007504
NI2872   NI        0.582714    0.278280    0.573368     0.004307
AU2873   AU        0.642685    0.220747    0.587366     0.007504
NI2874   NI        0.637430    0.257003    0.611295     0.004307
AU2875   AU        0.677347    0.232941    0.624851     0.007504
AU2876   AU        0.680436    0.256848    0.588299     0.007504
AU2877   AU        0.714613    0.222625    0.592559     0.007504
AU2878   AU        0.722128    0.259189    0.632293     0.007504
NI2879   NI        0.756007    0.217478    0.622277     0.004307
AU2880   AU        0.752724    0.250720    0.589630     0.007504
NI2881   NI        0.797430    0.246208    0.595260     0.004307
NI2882   NI        0.018618    0.325738    0.581318     0.004307
NI2883   NI        0.057794    0.285832    0.587125     0.004307
NI2884   NI        0.084169    0.350453    0.641529     0.004307
NI2885   NI        0.107011    0.315958    0.614841     0.004307
AU2886   AU        0.111832    0.355347    0.592671     0.007504
AU2887   AU        0.147631    0.297250    0.580844     0.007504
AU2888   AU        0.154090    0.321948    0.623671     0.007504
AU2889   AU        0.183040    0.288281    0.616569     0.007504
NI2890   NI        0.190418    0.316964    0.578306     0.004307
AU2891   AU        0.219853    0.284072    0.580922     0.007504
AU2892   AU        0.222125    0.319508    0.616918     0.007504
AU2893   AU        0.253677    0.288370    0.618187     0.007504
AU2894   AU        0.256268    0.320294    0.577578     0.007504
AU2895   AU        0.295334    0.288004    0.583911     0.007504
NI2896   NI        0.293761    0.320856    0.613390     0.004307
NI2897   NI        0.337877    0.294314    0.596232     0.004307
NI2898   NI        0.337017    0.328012    0.551348     0.004307
NI2899   NI        0.379503    0.310351    0.573039     0.004307
NI2900   NI        0.335581    0.311276    0.645759     0.004307
NI2901   NI        0.408226    0.303459    0.616657     0.004307
NI2902   NI        0.362452    0.335909    0.619267     0.004307
NI2903   NI        0.422725    0.313931    0.574831     0.004307
NI2904   NI        0.410496    0.342465    0.636232     0.004307
NI2905   NI        0.448035    0.311669    0.608647     0.004307
AU2906   AU        0.457519    0.351523    0.577640     0.007504
NI2907   NI        0.521042    0.288136    0.592602     0.004307
NI2908   NI        0.504947    0.320717    0.610387     0.004307
NI2909   NI        0.540042    0.296307    0.640821     0.004307
NI2910   NI        0.528924    0.337301    0.573976     0.004307
NI2911   NI        0.579215    0.303954    0.608021     0.004307
NI2912   NI        0.553823    0.340293    0.606743     0.004307
NI2913   NI        0.620882    0.293433    0.626688     0.004307
NI2914   NI        0.607166    0.340076    0.579598     0.004307
NI2915   NI        0.645745    0.298367    0.585518     0.004307
AU2916   AU        0.649208    0.328452    0.623532     0.007504
AU2917   AU        0.677625    0.283233    0.622689     0.007504
AU2918   AU        0.688567    0.327078    0.591104     0.007504
AU2919   AU        0.716840    0.286308    0.590905     0.007504
AU2920   AU        0.727304    0.326734    0.620175     0.007504
AU2921   AU        0.756564    0.291587    0.617383     0.007504
AU2922   AU        0.749138    0.324945    0.579010     0.007504
AU2923   AU        0.782249    0.293632    0.577650     0.007504
NI2924   NI        0.792389    0.330429    0.610101     0.004307
NI2925   NI        0.801993    0.282856    0.624659     0.004307
NI2926   NI        0.038631    0.367317    0.642241     0.004307
NI2927   NI        0.029382    0.412187    0.576626     0.004307
AU2928   AU        0.070428    0.370199    0.603123     0.007504
AU2929   AU        0.104587    0.404555    0.603103     0.007504
AU2930   AU        0.139733    0.363410    0.626358     0.007504
AU2931   AU        0.110390    0.419808    0.552850     0.007504
AU2932   AU        0.163438    0.357251    0.586762     0.007504
AU2933   AU        0.145765    0.415975    0.628434     0.007504
NI2934   NI        0.186944    0.382997    0.621219     0.004307
NI2935   NI        0.165060    0.406254    0.587964     0.004307
AU2936   AU        0.227133    0.354710    0.577237     0.007504
NI2937   NI        0.215951    0.405023    0.594065     0.004307
AU2938   AU        0.259860    0.351699    0.615318     0.007504
AU2939   AU        0.264424    0.380927    0.575078     0.007504
AU2940   AU        0.298355    0.348842    0.571836     0.007504
NI2941   NI        0.265562    0.418095    0.598052     0.004307
AU2942   AU        0.299550    0.382658    0.611614     0.007504
NI2943   NI        0.343563    0.395237    0.602160     0.004307
NI2944   NI        0.360929    0.362219    0.580162     0.004307
NI2945   NI        0.380133    0.420563    0.603705     0.004307
AU2946   AU        0.376748    0.381143    0.625573     0.007504
NI2947   NI        0.371140    0.403859    0.550388     0.004307
AU2948   AU        0.413901    0.368895    0.595396     0.007504
NI2949   NI        0.437490    0.406203    0.595767     0.004307
AU2950   AU        0.451231    0.350719    0.625654     0.007504
AU2951   AU        0.478697    0.388996    0.604023     0.007504
NI2952   NI        0.519731    0.366378    0.603182     0.004307
NI2953   NI        0.517266    0.421410    0.618466     0.004307
NI2954   NI        0.538705    0.369893    0.641459     0.004307
NI2955   NI        0.527662    0.402153    0.582020     0.004307
NI2956   NI        0.566869    0.366637    0.563799     0.004307
NI2957   NI        0.575236    0.376546    0.620894     0.004307
NI2958   NI        0.624295    0.374686    0.614509     0.004307
NI2959   NI        0.613155    0.388627    0.576495     0.004307
NI2960   NI        0.652964    0.364250    0.583733     0.004307
NI2961   NI        0.646406    0.418207    0.595498     0.004307
AU2962   AU        0.688240    0.361699    0.617337     0.007504
AU2963   AU        0.686839    0.407919    0.574436     0.007504
AU2964   AU        0.718140    0.369386    0.575968     0.007504
AU2965   AU        0.721260    0.402603    0.614337     0.007504
AU2966   AU        0.757122    0.366689    0.609051     0.007504
AU2967   AU        0.753586    0.402852    0.575298     0.007504
AU2968   AU        0.790545    0.365849    0.572281     0.007504
AU2969   AU        0.791531    0.401292    0.609812     0.007504
NI2970   NI        0.836595    0.385131    0.632380     0.004307
NI2971   NI        0.825622    0.401810    0.572350     0.004307
NI2972   NI        0.050904    0.407086    0.642421     0.004307
NI2973   NI        0.052511    0.446947    0.570568     0.004307
NI2974   NI        0.068426    0.425945    0.601673     0.004307
NI2975   NI        0.073853    0.459969    0.636799     0.004307
AU2976   AU        0.116753    0.460256    0.628117     0.007504
AU2977   AU        0.087999    0.468916    0.593446     0.007504
AU2978   AU        0.130856    0.441982    0.589743     0.007504
AU2979   AU        0.162051    0.467729    0.624106     0.007504
AU2980   AU        0.193846    0.435852    0.620682     0.007504
NI2981   NI        0.185266    0.469453    0.584779     0.004307
NI2982   NI        0.226247    0.438441    0.565879     0.004307
AU2983   AU        0.211900    0.477966    0.623100     0.007504
NI2984   NI        0.224545    0.405428    0.635171     0.004307
NI2985   NI        0.270347    0.467346    0.609303     0.004307
NI2986   NI        0.293783    0.451397    0.571466     0.004307
AU2987   AU        0.306853    0.491170    0.595596     0.007504
NI2988   NI        0.339145    0.445915    0.594580     0.004307
NI2989   NI        0.338794    0.483682    0.556933     0.004307
NI2990   NI        0.367396    0.444051    0.563071     0.004307
NI2991   NI        0.364896    0.492528    0.593866     0.004307
NI2992   NI        0.421600    0.439083    0.624649     0.004307
NI2993   NI        0.428793    0.506626    0.564327     0.004307
NI2994   NI        0.412832    0.442224    0.575448     0.004307
NI2995   NI        0.435161    0.476532    0.596125     0.004307
NI2996   NI        0.461876    0.441547    0.602532     0.004307
NI2997   NI        0.461424    0.468491    0.563740     0.004307
NI2998   NI        0.488689    0.425767    0.571572     0.004307
NI2999   NI        0.521139    0.461946    0.599539     0.004307
NI3000   NI        0.552294    0.444936    0.632143     0.004307
NI3001   NI        0.549397    0.476536    0.563446     0.004307
NI3002   NI        0.558889    0.431644    0.588757     0.004307
NI3003   NI        0.568640    0.478843    0.605957     0.004307
NI3004   NI        0.604605    0.425428    0.604198     0.004307
NI3005   NI        0.637361    0.473028    0.583714     0.004307
NI3006   NI        0.639380    0.454229    0.538778     0.004307
NI3007   NI        0.656548    0.464941    0.621220     0.004307
AU3008   AU        0.687467    0.437596    0.615029     0.007504
AU3009   AU        0.689952    0.479939    0.582451     0.007504
AU3010   AU        0.721597    0.442081    0.578921     0.007504
AU3011   AU        0.721612    0.475144    0.617832     0.007504
AU3012   AU        0.757509    0.438767    0.613864     0.007504
AU3013   AU        0.758726    0.476952    0.583063     0.007504
AU3014   AU        0.789250    0.437167    0.578417     0.007504
AU3015   AU        0.793322    0.475830    0.615672     0.007504
NI3016   NI        0.824792    0.440522    0.613082     0.004307
NI3017   NI        0.823727    0.468057    0.576547     0.004307
NI3018   NI        0.045155    0.491170    0.639610     0.004307
NI3019   NI        0.035002    0.547915    0.558452     0.004307
NI3020   NI        0.053475    0.498165    0.594207     0.004307
NI3021   NI        0.060884    0.565072    0.605161     0.004307
AU3022   AU        0.099037    0.508003    0.622968     0.007504
AU3023   AU        0.103183    0.558656    0.585523     0.007504
AU3024   AU        0.137692    0.493166    0.597926     0.007504
AU3025   AU        0.137611    0.537821    0.617266     0.007504
AU3026   AU        0.177556    0.513108    0.612969     0.007504
AU3027   AU        0.175773    0.557593    0.593848     0.007504
NI3028   NI        0.211929    0.513858    0.584781     0.004307
AU3029   AU        0.210121    0.552565    0.628763     0.007504
NI3030   NI        0.251274    0.511023    0.619792     0.004307
NI3031   NI        0.239595    0.547644    0.583768     0.004307
NI3032   NI        0.268750    0.515638    0.578892     0.004307
AU3033   AU        0.294008    0.538822    0.613587     0.007504
AU3034   AU        0.336918    0.532024    0.594285     0.007504
NI3035   NI        0.332420    0.574654    0.577555     0.004307
NI3036   NI        0.381921    0.526702    0.574246     0.004307
AU3037   AU        0.372796    0.528221    0.628009     0.007504
NI3038   NI        0.406386    0.514684    0.609754     0.004307
NI3039   NI        0.427127    0.546715    0.575727     0.004307
NI3040   NI        0.466226    0.527422    0.582289     0.004307
NI3041   NI        0.445494    0.538925    0.615358     0.004307
NI3042   NI        0.480248    0.476262    0.613636     0.004307
AU3043   AU        0.503897    0.552445    0.576142     0.007504
NI3044   NI        0.505520    0.501810    0.588307     0.004307
NI3045   NI        0.493710    0.534840    0.621665     0.004307
NI3046   NI        0.533557    0.521897    0.639562     0.004307
NI3047   NI        0.537907    0.528961    0.593628     0.004307
NI3048   NI        0.576906    0.511731    0.566192     0.004307
NI3049   NI        0.569904    0.558255    0.629140     0.004307
NI3050   NI        0.605241    0.502845    0.607704     0.004307
NI3051   NI        0.620167    0.539939    0.586825     0.004307
NI3052   NI        0.657908    0.523840    0.580114     0.004307
AU3053   AU        0.652588    0.548572    0.622097     0.007504
AU3054   AU        0.684649    0.508773    0.620768     0.007504
AU3055   AU        0.691136    0.550467    0.592139     0.007504
AU3056   AU        0.726003    0.516925    0.589903     0.007504
AU3057   AU        0.730495    0.552431    0.622399     0.007504
AU3058   AU        0.758975    0.513303    0.617840     0.007504
AU3059   AU        0.764020    0.549751    0.586232     0.007504
AU3060   AU        0.795318    0.512411    0.583697     0.007504
NI3061   NI        0.810577    0.522338    0.625973     0.004307
NI3062   NI        0.836411    0.561066    0.639228     0.004307
NI3063   NI        0.832107    0.550554    0.585408     0.004307
NI3064   NI        0.069834    0.580714    0.554500     0.004307
NI3065   NI        0.088036    0.595668    0.609842     0.004307
AU3066   AU        0.131637    0.587734    0.635380     0.007504
NI3067   NI        0.104551    0.620745    0.570754     0.004307
AU3068   AU        0.144827    0.591713    0.585368     0.007504
NI3069   NI        0.141751    0.624162    0.613998     0.004307
AU3070   AU        0.179510    0.593499    0.625940     0.007504
AU3071   AU        0.178564    0.625740    0.584612     0.007504
AU3072   AU        0.213174    0.588263    0.594185     0.007504
AU3073   AU        0.228664    0.610474    0.639260     0.007504
AU3074   AU        0.257572    0.577797    0.614891     0.007504
AU3075   AU        0.249125    0.622417    0.592139     0.007504
NI3076   NI        0.283768    0.558433    0.575712     0.004307
AU3077   AU        0.282299    0.619251    0.631427     0.007504
NI3078   NI        0.311745    0.577029    0.624649     0.004307
NI3079   NI        0.288251    0.603015    0.586287     0.004307
NI3080   NI        0.372452    0.570885    0.597064     0.004307
NI3081   NI        0.363983    0.633210    0.625199     0.004307
NI3082   NI        0.404803    0.557440    0.622364     0.004307
NI3083   NI        0.400939    0.614289    0.583900     0.004307
NI3084   NI        0.434037    0.587448    0.598565     0.004307
AU3085   AU        0.427571    0.624441    0.626938     0.007504
NI3086   NI        0.487299    0.580745    0.606765     0.004307
NI3087   NI        0.467907    0.621759    0.591209     0.004307
NI3088   NI        0.502975    0.602001    0.574283     0.004307
NI3089   NI        0.511611    0.609956    0.624611     0.004307
NI3090   NI        0.528163    0.567291    0.619712     0.004307
NI3091   NI        0.569959    0.594565    0.595202     0.004307
NI3092   NI        0.578245    0.549072    0.586165     0.004307
NI3093   NI        0.585139    0.629155    0.622819     0.004307
AU3094   AU        0.614571    0.578144    0.617185     0.007504
NI3095   NI        0.620333    0.618202    0.585096     0.004307
AU3096   AU        0.652220    0.576489    0.582258     0.007504
AU3097   AU        0.653953    0.615627    0.611511     0.007504
AU3098   AU        0.692075    0.584700    0.617949     0.007504
AU3099   AU        0.687622    0.614000    0.575414     0.007504
AU3100   AU        0.728676    0.584250    0.582894     0.007504
AU3101   AU        0.722360    0.622506    0.612024     0.007504
AU3102   AU        0.766653    0.592637    0.613172     0.007504
AU3103   AU        0.758683    0.627758    0.579503     0.007504
NI3104   NI        0.802932    0.585968    0.581648     0.004307
NI3105   NI        0.797843    0.562333    0.618288     0.004307
NI3106   NI        0.086160    0.660620    0.572049     0.004307
NI3107   NI        0.107146    0.695496    0.569373     0.004307
AU3108   AU        0.137492    0.655069    0.576268     0.007504
NI3109   NI        0.160564    0.671137    0.624712     0.004307
AU3110   AU        0.197818    0.640299    0.625991     0.007504
AU3111   AU        0.173430    0.688168    0.583048     0.007504
AU3112   AU        0.215552    0.661171    0.584267     0.007504
AU3113   AU        0.208444    0.689933    0.624941     0.007504
AU3114   AU        0.246308    0.657704    0.626678     0.007504
AU3115   AU        0.249290    0.692613    0.588142     0.007504
AU3116   AU        0.286237    0.656669    0.596687     0.007504
AU3117   AU        0.280015    0.696302    0.629083     0.007504
AU3118   AU        0.321211    0.652531    0.631830     0.007504
AU3119   AU        0.320740    0.690760    0.597547     0.007504
NI3120   NI        0.327873    0.631905    0.586053     0.004307
AU3121   AU        0.360236    0.684477    0.627230     0.007504
NI3122   NI        0.393828    0.663118    0.612024     0.004307
NI3123   NI        0.389273    0.705664    0.576339     0.004307
NI3124   NI        0.428672    0.652211    0.561875     0.004307
AU3125   AU        0.433839    0.678098    0.619875     0.007504
NI3126   NI        0.472242    0.654082    0.626327     0.004307
NI3127   NI        0.465528    0.675091    0.586034     0.004307
NI3128   NI        0.538922    0.653815    0.589959     0.004307
AU3129   AU        0.510846    0.682753    0.619309     0.007504
NI3130   NI        0.549832    0.646922    0.633159     0.004307
AU3131   AU        0.544252    0.706734    0.588979     0.007504
NI3132   NI        0.584830    0.635830    0.569098     0.004307
AU3133   AU        0.582104    0.679809    0.604503     0.007504
AU3134   AU        0.625116    0.654853    0.612133     0.007504
AU3135   AU        0.623609    0.696962    0.585887     0.007504
AU3136   AU        0.652731    0.645496    0.571252     0.007504
AU3137   AU        0.661437    0.693621    0.613377     0.007504
AU3138   AU        0.682905    0.650309    0.610843     0.007504
AU3139   AU        0.683121    0.683328    0.571325     0.007504
AU3140   AU        0.717024    0.655837    0.573118     0.007504
NI3141   NI        0.743467    0.663164    0.612886     0.004307
NI3142   NI        0.795441    0.631572    0.607033     0.004307
NI3143   NI        0.758001    0.674872    0.571633     0.004307
NI3144   NI        0.129896    0.698557    0.607085     0.004307
NI3145   NI        0.164638    0.745356    0.590530     0.004307
NI3146   NI        0.206504    0.766468    0.600480     0.004307
AU3147   AU        0.206784    0.718642    0.586664     0.007504
NI3148   NI        0.266149    0.783675    0.592371     0.004307
AU3149   AU        0.240951    0.729068    0.626340     0.007504
NI3150   NI        0.241325    0.746210    0.583366     0.004307
AU3151   AU        0.284310    0.727520    0.590347     0.007504
NI3152   NI        0.284784    0.761826    0.622799     0.004307
AU3153   AU        0.317106    0.729385    0.632269     0.007504
AU3154   AU        0.323776    0.761282    0.593586     0.007504
AU3155   AU        0.354975    0.725804    0.601524     0.007504
AU3156   AU        0.354229    0.764687    0.632599     0.007504
AU3157   AU        0.399801    0.717091    0.618512     0.007504
AU3158   AU        0.393281    0.763574    0.598919     0.007504
AU3159   AU        0.432097    0.735281    0.584250     0.007504
AU3160   AU        0.427263    0.788521    0.618900     0.007504
AU3161   AU        0.473504    0.708925    0.616490     0.007504
AU3162   AU        0.467521    0.756685    0.614935     0.007504
AU3163   AU        0.506624    0.730902    0.600077     0.007504
AU3164   AU        0.514755    0.774972    0.619698     0.007504
AU3165   AU        0.554555    0.742836    0.624353     0.007504
AU3166   AU        0.538323    0.754682    0.579112     0.007504
AU3167   AU        0.583359    0.729216    0.591300     0.007504
NI3168   NI        0.594002    0.762152    0.636388     0.004307
AU3169   AU        0.630516    0.732999    0.613051     0.007504
AU3170   AU        0.620258    0.758040    0.570708     0.007504
AU3171   AU        0.656351    0.724658    0.567000     0.007504
NI3172   NI        0.649847    0.767710    0.630411     0.004307
NI3173   NI        0.682756    0.738335    0.601157     0.004307
NI3174   NI        0.668364    0.773706    0.569236     0.004307
NI3175   NI        0.721384    0.698993    0.597466     0.004307
NI3176   NI        0.242010    0.779850    0.558109     0.004307
NI3177   NI        0.306677    0.810601    0.599511     0.004307
NI3178   NI        0.336789    0.805029    0.632641     0.004307
NI3179   NI        0.390374    0.844556    0.612016     0.004307
AU3180   AU        0.356467    0.797435    0.596308     0.007504
NI3181   NI        0.344242    0.851069    0.599576     0.004307
NI3182   NI        0.386064    0.803279    0.639976     0.004307
AU3183   AU        0.408411    0.825738    0.528183     0.007504
AU3184   AU        0.443488    0.781986    0.577667     0.007504
AU3185   AU        0.400036    0.808133    0.574031     0.007504
AU3186   AU        0.475441    0.803041    0.597662     0.007504
NI3187   NI        0.437177    0.826901    0.597355     0.004307
AU3188   AU        0.518176    0.801662    0.576352     0.007504
NI3189   NI        0.511721    0.844938    0.593827     0.004307
NI3190   NI        0.526943    0.820164    0.635987     0.004307
NI3191   NI        0.560492    0.806862    0.605545     0.004307
NI3192   NI        0.580237    0.801420    0.653777     0.004307
AU3193   AU        0.583793    0.773213    0.592736     0.007504
NI3194   NI        0.270291    0.102064    0.659998     0.004307
NI3195   NI        0.275251    0.133713    0.693993     0.004307
NI3196   NI        0.308945    0.103258    0.681954     0.004307
NI3197   NI        0.365035    0.072392    0.664009     0.004307
NI3198   NI        0.375656    0.103492    0.698636     0.004307
NI3199   NI        0.419451    0.070528    0.660384     0.004307
NI3200   NI        0.431178    0.121812    0.679156     0.004307
NI3201   NI        0.464186    0.090900    0.677660     0.004307
NI3202   NI        0.422393    0.101066    0.718558     0.004307
NI3203   NI        0.508416    0.086341    0.637767     0.004307
AU3204   AU        0.471611    0.119013    0.641121     0.007504
NI3205   NI        0.563523    0.091127    0.677428     0.004307
AU3206   AU        0.503301    0.126833    0.676136     0.007504
AU3207   AU        0.537707    0.123541    0.646604     0.007504
NI3208   NI        0.617973    0.141525    0.676481     0.004307
NI3209   NI        0.593249    0.111581    0.649494     0.004307
NI3210   NI        0.195576    0.189996    0.643935     0.004307
NI3211   NI        0.238199    0.137342    0.659734     0.004307
NI3212   NI        0.232219    0.187598    0.698331     0.004307
NI3213   NI        0.198496    0.158245    0.681544     0.004307
AU3214   AU        0.268448    0.176018    0.663586     0.007504
AU3215   AU        0.307856    0.141397    0.655866     0.007504
AU3216   AU        0.304839    0.175150    0.700805     0.007504
AU3217   AU        0.341805    0.144237    0.690943     0.007504
AU3218   AU        0.315275    0.192991    0.654077     0.007504
AU3219   AU        0.349986    0.160630    0.644852     0.007504
AU3220   AU        0.354934    0.189640    0.686519     0.007504
AU3221   AU        0.388678    0.155745    0.677548     0.007504
AU3222   AU        0.389391    0.192126    0.652443     0.007504
AU3223   AU        0.425751    0.153657    0.646088     0.007504
AU3224   AU        0.427549    0.188570    0.685577     0.007504
AU3225   AU        0.461339    0.152109    0.677222     0.007504
AU3226   AU        0.464773    0.194161    0.649244     0.007504
AU3227   AU        0.501224    0.159606    0.648952     0.007504
AU3228   AU        0.503921    0.197687    0.681702     0.007504
AU3229   AU        0.539319    0.158131    0.684252     0.007504
AU3230   AU        0.544197    0.191521    0.655086     0.007504
AU3231   AU        0.575671    0.152969    0.653219     0.007504
AU3232   AU        0.577110    0.186568    0.690636     0.007504
NI3233   NI        0.576848    0.147157    0.710770     0.004307
AU3234   AU        0.615293    0.183511    0.658201     0.007504
NI3235   NI        0.652532    0.177840    0.678634     0.004307
NI3236   NI        0.663409    0.214143    0.703449     0.004307
NI3237   NI        0.691835    0.200669    0.669067     0.004307
NI3238   NI        0.115454    0.249275    0.659878     0.004307
NI3239   NI        0.156382    0.238299    0.673004     0.004307
NI3240   NI        0.137601    0.191269    0.664720     0.004307
NI3241   NI        0.196551    0.216801    0.690891     0.004307
AU3242   AU        0.184783    0.260364    0.651693     0.007504
AU3243   AU        0.235265    0.215391    0.659305     0.007504
AU3244   AU        0.229411    0.249131    0.695031     0.007504
AU3245   AU        0.269949    0.212777    0.697318     0.007504
AU3246   AU        0.254680    0.254818    0.655886     0.007504
AU3247   AU        0.286738    0.224609    0.655049     0.007504
AU3248   AU        0.290583    0.259978    0.691294     0.007504
AU3249   AU        0.320333    0.225337    0.689421     0.007504
AU3250   AU        0.321014    0.263463    0.652945     0.007504
AU3251   AU        0.353170    0.227648    0.654533     0.007504
AU3252   AU        0.354253    0.263937    0.690127     0.007504
AU3253   AU        0.390564    0.225343    0.690534     0.007504
NI3254   NI        0.386738    0.265801    0.659053     0.004307
AU3255   AU        0.428049    0.227908    0.656375     0.007504
AU3256   AU        0.425809    0.265620    0.692289     0.007504
AU3257   AU        0.462807    0.224016    0.692589     0.007504
NI3258   NI        0.462899    0.262990    0.663368     0.004307
NI3259   NI        0.504249    0.221679    0.646751     0.004307
AU3260   AU        0.503310    0.253231    0.688127     0.007504
AU3261   AU        0.545130    0.225226    0.689235     0.007504
NI3262   NI        0.543221    0.253082    0.657445     0.004307
AU3263   AU        0.579532    0.218311    0.652933     0.007504
AU3264   AU        0.583601    0.256655    0.695327     0.007504
AU3265   AU        0.616029    0.221061    0.687274     0.007504
AU3266   AU        0.619766    0.261390    0.667348     0.007504
AU3267   AU        0.629160    0.223287    0.636904     0.007504
AU3268   AU        0.653551    0.258301    0.702908     0.007504
NI3269   NI        0.735878    0.180091    0.665278     0.004307
NI3270   NI        0.758392    0.254762    0.670163     0.004307
NI3271   NI        0.710442    0.191955    0.628362     0.004307
AU3272   AU        0.694972    0.268804    0.678113     0.007504
NI3273   NI        0.696644    0.241142    0.720361     0.004307
NI3274   NI        0.117707    0.292910    0.700023     0.004307
AU3275   AU        0.126567    0.336705    0.665714     0.007504
AU3276   AU        0.148664    0.288850    0.659805     0.007504
AU3277   AU        0.164064    0.322326    0.697290     0.007504
AU3278   AU        0.193517    0.285921    0.693792     0.007504
AU3279   AU        0.190866    0.315458    0.655183     0.007504
AU3280   AU        0.223867    0.285646    0.655376     0.007504
AU3281   AU        0.227828    0.321105    0.690198     0.007504
AU3282   AU        0.256873    0.288665    0.694484     0.007504
NI3283   NI        0.258062    0.320516    0.657758     0.004307
AU3284   AU        0.288361    0.292535    0.652507     0.007504
AU3285   AU        0.281857    0.332540    0.697344     0.007504
AU3286   AU        0.318276    0.299570    0.691206     0.007504
NI3287   NI        0.296447    0.350152    0.651700     0.004307
NI3288   NI        0.378349    0.313985    0.652688     0.004307
NI3289   NI        0.350124    0.323673    0.685521     0.004307
AU3290   AU        0.397481    0.301180    0.709782     0.007504
NI3291   NI        0.379887    0.355501    0.662662     0.004307
NI3292   NI        0.426174    0.302824    0.658090     0.004307
NI3293   NI        0.430086    0.336849    0.700694     0.004307
NI3294   NI        0.463375    0.295139    0.703405     0.004307
NI3295   NI        0.472546    0.317204    0.644430     0.004307
NI3296   NI        0.497628    0.293670    0.669886     0.004307
NI3297   NI        0.472100    0.332856    0.691931     0.004307
NI3298   NI        0.536673    0.286446    0.687734     0.004307
NI3299   NI        0.524714    0.331714    0.656229     0.004307
NI3300   NI        0.584046    0.279257    0.650985     0.004307
AU3301   AU        0.569795    0.314328    0.687268     0.007504
AU3302   AU        0.618094    0.295467    0.701397     0.007504
NI3303   NI        0.603583    0.320463    0.654722     0.004307
AU3304   AU        0.655975    0.294749    0.670148     0.007504
AU3305   AU        0.644185    0.333535    0.691362     0.007504
AU3306   AU        0.701246    0.313606    0.688905     0.007504
AU3307   AU        0.685987    0.328704    0.645577     0.007504
AU3308   AU        0.732838    0.301234    0.659549     0.007504
NI3309   NI        0.728674    0.350682    0.693008     0.004307
NI3310   NI        0.776223    0.305096    0.673415     0.004307
NI3311   NI        0.763545    0.342979    0.645212     0.004307
NI3312   NI        0.117430    0.405168    0.699990     0.004307
NI3313   NI        0.066514    0.420650    0.695325     0.004307
NI3314   NI        0.092539    0.371768    0.682917     0.004307
AU3315   AU        0.131239    0.384732    0.665562     0.007504
AU3316   AU        0.170951    0.362624    0.660982     0.007504
AU3317   AU        0.165043    0.400015    0.700125     0.007504
AU3318   AU        0.196940    0.357097    0.696235     0.007504
AU3319   AU        0.184849    0.414953    0.664696     0.007504
AU3320   AU        0.225427    0.351094    0.654707     0.007504
AU3321   AU        0.224885    0.396647    0.680349     0.007504
NI3322   NI        0.286534    0.380851    0.692916     0.004307
NI3323   NI        0.265207    0.423423    0.638449     0.004307
NI3324   NI        0.265499    0.380595    0.653082     0.004307
NI3325   NI        0.304358    0.400175    0.654811     0.004307
NI3326   NI        0.322572    0.358038    0.696647     0.004307
NI3327   NI        0.340972    0.421185    0.636037     0.004307
NI3328   NI        0.335190    0.360167    0.641492     0.004307
NI3329   NI        0.359183    0.379578    0.688525     0.004307
NI3330   NI        0.411221    0.375214    0.712099     0.004307
NI3331   NI        0.394559    0.418641    0.651553     0.004307
AU3332   AU        0.424919    0.389401    0.638881     0.007504
NI3333   NI        0.437267    0.414698    0.679608     0.004307
NI3334   NI        0.454765    0.373274    0.670713     0.004307
NI3335   NI        0.468794    0.416769    0.641483     0.004307
NI3336   NI        0.492635    0.366321    0.643306     0.004307
NI3337   NI        0.492716    0.388867    0.678345     0.004307
NI3338   NI        0.546535    0.352293    0.691939     0.004307
NI3339   NI        0.518883    0.414424    0.658541     0.004307
NI3340   NI        0.573749    0.351751    0.661442     0.004307
NI3341   NI        0.566115    0.393530    0.672590     0.004307
NI3342   NI        0.610979    0.372325    0.675567     0.004307
NI3343   NI        0.610771    0.402977    0.644650     0.004307
AU3344   AU        0.650344    0.363674    0.651533     0.007504
AU3345   AU        0.652761    0.394930    0.688234     0.007504
AU3346   AU        0.688105    0.359998    0.685392     0.007504
AU3347   AU        0.683430    0.399291    0.650038     0.007504
AU3348   AU        0.724181    0.366791    0.648070     0.007504
AU3349   AU        0.722181    0.400826    0.683122     0.007504
NI3350   NI        0.751058    0.348279    0.732026     0.004307
AU3351   AU        0.758556    0.400546    0.647613     0.007504
NI3352   NI        0.805496    0.385465    0.660998     0.004307
NI3353   NI        0.759276    0.381106    0.692188     0.004307
AU3354   AU        0.098541    0.414855    0.651394     0.007504
NI3355   NI        0.072696    0.516069    0.667721     0.004307
NI3356   NI        0.103967    0.445025    0.706462     0.004307
NI3357   NI        0.098898    0.479056    0.668476     0.004307
AU3358   AU        0.138381    0.434281    0.673358     0.007504
AU3359   AU        0.139023    0.482847    0.696595     0.007504
AU3360   AU        0.200285    0.435950    0.700172     0.007504
AU3361   AU        0.180853    0.465654    0.664440     0.007504
NI3362   NI        0.222042    0.445250    0.652074     0.004307
AU3363   AU        0.216794    0.481689    0.695355     0.007504
AU3364   AU        0.247790    0.443008    0.692315     0.007504
NI3365   NI        0.257064    0.467856    0.650822     0.004307
AU3366   AU        0.307923    0.453883    0.628918     0.007504
AU3367   AU        0.294150    0.463457    0.678468     0.007504
AU3368   AU        0.335468    0.441993    0.696242     0.007504
AU3369   AU        0.338739    0.490999    0.630240     0.007504
NI3370   NI        0.367337    0.455363    0.632493     0.004307
NI3371   NI        0.356768    0.473647    0.717280     0.004307
NI3372   NI        0.384552    0.451861    0.683134     0.004307
NI3373   NI        0.411779    0.479673    0.638314     0.004307
NI3374   NI        0.427563    0.455404    0.674747     0.004307
NI3375   NI        0.450888    0.492280    0.670659     0.004307
NI3376   NI        0.480015    0.431998    0.679961     0.004307
NI3377   NI        0.454602    0.457682    0.642469     0.004307
NI3378   NI        0.506565    0.457954    0.645012     0.004307
NI3379   NI        0.491873    0.473283    0.687244     0.004307
AU3380   AU        0.531739    0.445561    0.688361     0.007504
NI3381   NI        0.538652    0.488402    0.664652     0.004307
NI3382   NI        0.582233    0.438420    0.661184     0.004307
NI3383   NI        0.591904    0.471600    0.691205     0.004307
NI3384   NI        0.620376    0.431360    0.686725     0.004307
NI3385   NI        0.606970    0.464343    0.636049     0.004307
NI3386   NI        0.647881    0.432068    0.651301     0.004307
AU3387   AU        0.647441    0.467003    0.688059     0.007504
AU3388   AU        0.685950    0.433244    0.685245     0.007504
AU3389   AU        0.688076    0.472278    0.654235     0.007504
AU3390   AU        0.723250    0.435609    0.650458     0.007504
AU3391   AU        0.719150    0.472115    0.684717     0.007504
AU3392   AU        0.755186    0.435625    0.683779     0.007504
AU3393   AU        0.755668    0.471723    0.650269     0.007504
AU3394   AU        0.791583    0.438157    0.648810     0.007504
NI3395   NI        0.794250    0.472390    0.686868     0.004307
NI3396   NI        0.060040    0.530945    0.628565     0.004307
NI3397   NI        0.114506    0.575233    0.679480     0.004307
AU3398   AU        0.097435    0.558559    0.635799     0.007504
AU3399   AU        0.143636    0.502430    0.651832     0.007504
AU3400   AU        0.130594    0.534473    0.687356     0.007504
AU3401   AU        0.177084    0.510894    0.687570     0.007504
AU3402   AU        0.165537    0.547773    0.654253     0.007504
NI3403   NI        0.200358    0.509854    0.650224     0.004307
AU3404   AU        0.221137    0.538274    0.682448     0.007504
AU3405   AU        0.261666    0.502392    0.683182     0.007504
AU3406   AU        0.257434    0.541777    0.652592     0.007504
AU3407   AU        0.293295    0.500905    0.643780     0.007504
AU3408   AU        0.300052    0.532046    0.679968     0.007504
AU3409   AU        0.333151    0.495673    0.680954     0.007504
AU3410   AU        0.331221    0.534754    0.645112     0.007504
NI3411   NI        0.380178    0.494380    0.664483     0.004307
NI3412   NI        0.371978    0.536377    0.674066     0.004307
NI3413   NI        0.410962    0.491923    0.698533     0.004307
NI3414   NI        0.415518    0.525740    0.654081     0.004307
NI3415   NI        0.446934    0.501326    0.631101     0.004307
NI3416   NI        0.435060    0.537639    0.689031     0.004307
NI3417   NI        0.467728    0.511984    0.702180     0.004307
NI3418   NI        0.460964    0.534356    0.656024     0.004307
NI3419   NI        0.489525    0.497051    0.652268     0.004307
NI3420   NI        0.504175    0.533561    0.677008     0.004307
NI3421   NI        0.554237    0.526600    0.681970     0.004307
AU3422   AU        0.539795    0.565398    0.668467     0.007504
NI3423   NI        0.582155    0.512068    0.639433     0.004307
AU3424   AU        0.585355    0.552742    0.696010     0.007504
AU3425   AU        0.605634    0.513010    0.691366     0.007504
AU3426   AU        0.615458    0.546743    0.656193     0.007504
AU3427   AU        0.644556    0.503326    0.651649     0.007504
AU3428   AU        0.645753    0.545128    0.688772     0.007504
AU3429   AU        0.682761    0.508655    0.684393     0.007504
AU3430   AU        0.691044    0.550198    0.656497     0.007504
AU3431   AU        0.722104    0.512223    0.653442     0.007504
AU3432   AU        0.732101    0.550246    0.684761     0.007504
NI3433   NI        0.760543    0.505190    0.690731     0.004307
NI3434   NI        0.763847    0.547596    0.646533     0.004307
NI3435   NI        0.788402    0.504837    0.658676     0.004307
NI3436   NI        0.069172    0.564627    0.673683     0.004307
NI3437   NI        0.110044    0.657775    0.616717     0.004307
AU3438   AU        0.157673    0.588653    0.672208     0.007504
NI3439   NI        0.177217    0.605262    0.712405     0.004307
AU3440   AU        0.176497    0.554250    0.703984     0.007504
AU3441   AU        0.189803    0.624428    0.668509     0.007504
AU3442   AU        0.202502    0.578661    0.668356     0.007504
AU3443   AU        0.219075    0.618492    0.708988     0.007504
NI3444   NI        0.243632    0.585704    0.684888     0.004307
AU3445   AU        0.259986    0.625022    0.675036     0.007504
AU3446   AU        0.288152    0.580745    0.670246     0.007504
AU3447   AU        0.299598    0.626635    0.693487     0.007504
NI3448   NI        0.339150    0.565901    0.679037     0.004307
AU3449   AU        0.328633    0.611187    0.656055     0.007504
NI3450   NI        0.368063    0.582899    0.647244     0.004307
NI3451   NI        0.365663    0.610099    0.690202     0.004307
NI3452   NI        0.416192    0.578075    0.692817     0.004307
NI3453   NI        0.398555    0.624507    0.662024     0.004307
NI3454   NI        0.445361    0.575043    0.647036     0.004307
NI3455   NI        0.431768    0.623392    0.688145     0.004307
NI3456   NI        0.464291    0.592953    0.681034     0.004307
NI3457   NI        0.470126    0.609615    0.635415     0.004307
NI3458   NI        0.488004    0.571427    0.650215     0.004307
AU3459   AU        0.510195    0.607450    0.670739     0.007504
AU3460   AU        0.557182    0.604051    0.693948     0.007504
NI3461   NI        0.545629    0.610517    0.651763     0.004307
AU3462   AU        0.583950    0.586964    0.659228     0.007504
AU3463   AU        0.592681    0.628028    0.687822     0.007504
AU3464   AU        0.621910    0.588457    0.689676     0.007504
AU3465   AU        0.621319    0.620824    0.649707     0.007504
AU3466   AU        0.652756    0.583175    0.651111     0.007504
AU3467   AU        0.656339    0.622475    0.686308     0.007504
AU3468   AU        0.695964    0.587378    0.684664     0.007504
AU3469   AU        0.688310    0.621148    0.650466     0.007504
AU3470   AU        0.731236    0.588161    0.649552     0.007504
NI3471   NI        0.741385    0.595610    0.701116     0.004307
NI3472   NI        0.777960    0.592993    0.654339     0.004307
NI3473   NI        0.755668    0.630630    0.634993     0.004307
NI3474   NI        0.142469    0.627632    0.663736     0.004307
NI3475   NI        0.149135    0.634690    0.731880     0.004307
NI3476   NI        0.178183    0.666176    0.664468     0.004307
AU3477   AU        0.226076    0.653931    0.665460     0.007504
NI3478   NI        0.208320    0.690928    0.700784     0.004307
AU3479   AU        0.247894    0.663439    0.705289     0.007504
AU3480   AU        0.245752    0.694085    0.661721     0.007504
AU3481   AU        0.280715    0.661423    0.665141     0.007504
AU3482   AU        0.284111    0.695980    0.694176     0.007504
AU3483   AU        0.323977    0.665913    0.694530     0.007504
AU3484   AU        0.322522    0.690707    0.657449     0.007504
AU3485   AU        0.359430    0.652690    0.664225     0.007504
AU3486   AU        0.361123    0.697800    0.691931     0.007504
AU3487   AU        0.401076    0.666135    0.690031     0.007504
AU3488   AU        0.396564    0.688377    0.653205     0.007504
AU3489   AU        0.436923    0.660215    0.660302     0.007504
AU3490   AU        0.435657    0.697003    0.686637     0.007504
AU3491   AU        0.473483    0.640346    0.671468     0.007504
AU3492   AU        0.475649    0.690876    0.659403     0.007504
AU3493   AU        0.516280    0.657825    0.656868     0.007504
AU3494   AU        0.515218    0.698119    0.685064     0.007504
AU3495   AU        0.555779    0.662923    0.686560     0.007504
AU3496   AU        0.549706    0.695341    0.643310     0.007504
AU3497   AU        0.590988    0.662760    0.650219     0.007504
NI3498   NI        0.552244    0.692595    0.719947     0.004307
AU3499   AU        0.627001    0.662126    0.682222     0.007504
AU3500   AU        0.627619    0.692913    0.642194     0.007504
AU3501   AU        0.658644    0.654584    0.646724     0.007504
NI3502   NI        0.666636    0.692773    0.666780     0.004307
NI3503   NI        0.689904    0.658164    0.690560     0.004307
NI3504   NI        0.704622    0.689472    0.639243     0.004307
NI3505   NI        0.727905    0.632024    0.667216     0.004307
NI3506   NI        0.205185    0.710378    0.664046     0.004307
NI3507   NI        0.251398    0.720642    0.709807     0.004307
NI3508   NI        0.224410    0.752677    0.666070     0.004307
AU3509   AU        0.277270    0.734182    0.662295     0.007504
NI3510   NI        0.323667    0.764651    0.708944     0.004307
AU3511   AU        0.323503    0.726351    0.682202     0.007504
NI3512   NI        0.312272    0.771634    0.659783     0.004307
AU3513   AU        0.359976    0.724242    0.650156     0.007504
NI3514   NI        0.362781    0.752001    0.685839     0.004307
AU3515   AU        0.399123    0.727542    0.681263     0.007504
AU3516   AU        0.400705    0.756585    0.646388     0.007504
AU3517   AU        0.435819    0.721083    0.644756     0.007504
NI3518   NI        0.438527    0.744200    0.692568     0.004307
AU3519   AU        0.475253    0.728420    0.681902     0.007504
AU3520   AU        0.450343    0.767243    0.658342     0.007504
AU3521   AU        0.511583    0.726824    0.644793     0.007504
NI3522   NI        0.510095    0.751117    0.700270     0.004307
AU3523   AU        0.551291    0.724523    0.674138     0.007504
NI3524   NI        0.535997    0.771095    0.667464     0.004307
AU3525   AU        0.589257    0.715283    0.640962     0.007504
NI3526   NI        0.606722    0.730295    0.679266     0.004307
NI3527   NI        0.609777    0.742881    0.718828     0.004307
NI3528   NI        0.609061    0.807623    0.620070     0.004307
NI3529   NI        0.664443    0.728403    0.643651     0.004307
NI3530   NI        0.354461    0.794534    0.670004     0.004307
NI3531   NI        0.403963    0.780730    0.682116     0.004307
NI3532   NI        0.447667    0.825446    0.639708     0.004307
NI3533   NI        0.446537    0.805949    0.696094     0.004307
NI3534   NI        0.481105    0.796228    0.647983     0.004307
NI3535   NI        0.417700    0.126757    0.761373     0.004307
NI3536   NI        0.463461    0.125541    0.717612     0.004307
NI3537   NI        0.262839    0.173902    0.724526     0.004307
NI3538   NI        0.307553    0.130169    0.718774     0.004307
NI3539   NI        0.302982    0.166153    0.752981     0.004307
AU3540   AU        0.341504    0.174499    0.733440     0.007504
NI3541   NI        0.377976    0.137624    0.729581     0.004307
NI3542   NI        0.374256    0.208884    0.759677     0.004307
NI3543   NI        0.429709    0.191332    0.749381     0.004307
AU3544   AU        0.391688    0.186929    0.720220     0.007504
AU3545   AU        0.423497    0.149196    0.712571     0.007504
NI3546   NI        0.446860    0.207339    0.793140     0.004307
NI3547   NI        0.482284    0.153029    0.749782     0.004307
AU3548   AU        0.462120    0.180293    0.720376     0.007504
AU3549   AU        0.500112    0.163655    0.710724     0.007504
NI3550   NI        0.514717    0.179384    0.754828     0.004307
AU3551   AU        0.539832    0.192637    0.720621     0.007504
NI3552   NI        0.539173    0.125490    0.716410     0.004307
NI3553   NI        0.584121    0.178546    0.738356     0.004307
NI3554   NI        0.621866    0.180500    0.706418     0.004307
NI3555   NI        0.195391    0.242845    0.727928     0.004307
NI3556   NI        0.232649    0.217110    0.735799     0.004307
NI3557   NI        0.226252    0.252405    0.765350     0.004307
NI3558   NI        0.258019    0.224724    0.774332     0.004307
AU3559   AU        0.263939    0.247667    0.731840     0.007504
AU3560   AU        0.303051    0.212446    0.733863     0.007504
AU3561   AU        0.298393    0.255364    0.768144     0.007504
NI3562   NI        0.335185    0.215402    0.771535     0.004307
AU3563   AU        0.320418    0.260229    0.728406     0.007504
AU3564   AU        0.352400    0.224159    0.725441     0.007504
AU3565   AU        0.353757    0.258223    0.761079     0.007504
AU3566   AU        0.401065    0.242158    0.775378     0.007504
AU3567   AU        0.386138    0.257503    0.729113     0.007504
AU3568   AU        0.427615    0.232222    0.732110     0.007504
AU3569   AU        0.452972    0.249118    0.774071     0.007504
AU3570   AU        0.470016    0.212748    0.755686     0.007504
AU3571   AU        0.475033    0.256823    0.729158     0.007504
AU3572   AU        0.503099    0.218774    0.724124     0.007504
AU3573   AU        0.508751    0.246450    0.764323     0.007504
NI3574   NI        0.546177    0.221983    0.755579     0.004307
AU3575   AU        0.539099    0.257510    0.725875     0.007504
AU3576   AU        0.578767    0.222969    0.723291     0.007504
NI3577   NI        0.556238    0.260792    0.768302     0.004307
NI3578   NI        0.593815    0.227567    0.765626     0.004307
AU3579   AU        0.614652    0.262271    0.734876     0.007504
NI3580   NI        0.625019    0.213620    0.735333     0.004307
NI3581   NI        0.656918    0.255236    0.752549     0.004307
NI3582   NI        0.667670    0.202515    0.744843     0.004307
NI3583   NI        0.161864    0.285045    0.732515     0.004307
NI3584   NI        0.188571    0.286372    0.767881     0.004307
AU3585   AU        0.201642    0.321640    0.731439     0.007504
AU3586   AU        0.227262    0.281862    0.732725     0.007504
AU3587   AU        0.230671    0.321097    0.772556     0.007504
AU3588   AU        0.259461    0.281291    0.768666     0.007504
AU3589   AU        0.255723    0.321586    0.732255     0.007504
AU3590   AU        0.289007    0.292185    0.731088     0.007504
AU3591   AU        0.283229    0.324891    0.772095     0.007504
AU3592   AU        0.322773    0.299031    0.767898     0.007504
AU3593   AU        0.316767    0.333021    0.731176     0.007504
AU3594   AU        0.353714    0.296899    0.728940     0.007504
AU3595   AU        0.362705    0.334111    0.758784     0.007504
AU3596   AU        0.390040    0.293711    0.762042     0.007504
AU3597   AU        0.415335    0.332658    0.742890     0.007504
AU3598   AU        0.431628    0.281784    0.741191     0.007504
AU3599   AU        0.455654    0.325786    0.793091     0.007504
AU3600   AU        0.480223    0.287019    0.766282     0.007504
AU3601   AU        0.464893    0.330156    0.740283     0.007504
AU3602   AU        0.509461    0.297302    0.729390     0.007504
AU3603   AU        0.509225    0.333083    0.762346     0.007504
AU3604   AU        0.541193    0.301571    0.770884     0.007504
AU3605   AU        0.546989    0.330095    0.731118     0.007504
AU3606   AU        0.576951    0.291197    0.730168     0.007504
AU3607   AU        0.581915    0.331077    0.760887     0.007504
AU3608   AU        0.623030    0.311286    0.742244     0.007504
AU3609   AU        0.595923    0.337687    0.711758     0.007504
AU3610   AU        0.665067    0.305202    0.718856     0.007504
NI3611   NI        0.658961    0.352856    0.776176     0.004307
NI3612   NI        0.671380    0.291222    0.770067     0.004307
NI3613   NI        0.701452    0.308071    0.742257     0.004307
NI3614   NI        0.736235    0.281708    0.702420     0.004307
NI3615   NI        0.107818    0.373774    0.729522     0.004307
AU3616   AU        0.144557    0.361707    0.703585     0.007504
NI3617   NI        0.147515    0.394266    0.742827     0.004307
NI3618   NI        0.178528    0.364043    0.740340     0.004307
AU3619   AU        0.206219    0.394964    0.728460     0.007504
AU3620   AU        0.243735    0.363953    0.710939     0.007504
AU3621   AU        0.228434    0.412914    0.768102     0.007504
AU3622   AU        0.248847    0.366299    0.762807     0.007504
AU3623   AU        0.256679    0.407177    0.729181     0.007504
AU3624   AU        0.288568    0.365315    0.745421     0.007504
AU3625   AU        0.278183    0.410663    0.771426     0.007504
AU3626   AU        0.342940    0.378490    0.741101     0.007504
AU3627   AU        0.308052    0.414638    0.737678     0.007504
AU3628   AU        0.373422    0.345354    0.716146     0.007504
AU3629   AU        0.365731    0.412870    0.779348     0.007504
AU3630   AU        0.390228    0.373009    0.755639     0.007504
NI3631   NI        0.398020    0.414346    0.693915     0.004307
AU3632   AU        0.457827    0.374141    0.720257     0.007504
AU3633   AU        0.458369    0.402160    0.775375     0.007504
AU3634   AU        0.490921    0.371813    0.754617     0.007504
AU3635   AU        0.488809    0.412582    0.728407     0.007504
NI3636   NI        0.511077    0.353163    0.714159     0.004307
AU3637   AU        0.501189    0.406133    0.780228     0.007504
AU3638   AU        0.539318    0.375193    0.751130     0.007504
AU3639   AU        0.533947    0.401567    0.708237     0.007504
NI3640   NI        0.571216    0.379010    0.715967     0.004307
AU3641   AU        0.575740    0.407317    0.747781     0.007504
AU3642   AU        0.619904    0.362477    0.750040     0.007504
AU3643   AU        0.615884    0.397323    0.716952     0.007504
AU3644   AU        0.661659    0.354537    0.728383     0.007504
NI3645   NI        0.656505    0.392884    0.748858     0.004307
NI3646   NI        0.678911    0.389979    0.789738     0.004307
AU3647   AU        0.688786    0.396958    0.720307     0.007504
NI3648   NI        0.710315    0.357455    0.733062     0.004307
NI3649   NI        0.785449    0.429366    0.714046     0.004307
NI3650   NI        0.735628    0.396094    0.731485     0.004307
NI3651   NI        0.103613    0.506421    0.718279     0.004307
AU3652   AU        0.150109    0.440240    0.723293     0.007504
NI3653   NI        0.154640    0.481330    0.756153     0.004307
AU3654   AU        0.189025    0.436448    0.752941     0.007504
AU3655   AU        0.183964    0.474616    0.723312     0.007504
AU3656   AU        0.226774    0.449985    0.735781     0.007504
AU3657   AU        0.209392    0.485195    0.766392     0.007504
AU3658   AU        0.249905    0.456388    0.776953     0.007504
AU3659   AU        0.247285    0.489399    0.735014     0.007504
AU3660   AU        0.276211    0.450871    0.735833     0.007504
AU3661   AU        0.284655    0.485752    0.768594     0.007504
AU3662   AU        0.300762    0.446348    0.778775     0.007504
AU3663   AU        0.321521    0.463500    0.743965     0.007504
NI3664   NI        0.356900    0.414476    0.721681     0.004307
NI3665   NI        0.362478    0.443158    0.749810     0.004307
NI3666   NI        0.400751    0.428584    0.754309     0.004307
NI3667   NI        0.405042    0.451629    0.718961     0.004307
NI3668   NI        0.433838    0.411861    0.727885     0.004307
NI3669   NI        0.427047    0.465238    0.757049     0.004307
AU3670   AU        0.477362    0.447763    0.763048     0.007504
NI3671   NI        0.452966    0.464466    0.718816     0.004307
NI3672   NI        0.495748    0.456035    0.724525     0.004307
AU3673   AU        0.522690    0.472742    0.761067     0.007504
AU3674   AU        0.536032    0.428026    0.747841     0.007504
AU3675   AU        0.554750    0.473448    0.724544     0.007504
AU3676   AU        0.574402    0.427968    0.709894     0.007504
AU3677   AU        0.576162    0.450882    0.761780     0.007504
AU3678   AU        0.612414    0.441966    0.730292     0.007504
AU3679   AU        0.596915    0.490849    0.740113     0.007504
AU3680   AU        0.653068    0.431668    0.723682     0.007504
NI3681   NI        0.678353    0.464344    0.767255     0.004307
NI3682   NI        0.691771    0.423042    0.763888     0.004307
AU3683   AU        0.685413    0.472614    0.718247     0.007504
AU3684   AU        0.719741    0.436556    0.721491     0.007504
NI3685   NI        0.717525    0.477080    0.750650     0.004307
NI3686   NI        0.748682    0.469231    0.718657     0.004307
AU3687   AU        0.154606    0.517451    0.727959     0.007504
NI3688   NI        0.171396    0.517560    0.769278     0.004307
NI3689   NI        0.198016    0.557459    0.754100     0.004307
AU3690   AU        0.203972    0.520171    0.728939     0.007504
AU3691   AU        0.242247    0.543180    0.742659     0.007504
AU3692   AU        0.251532    0.509974    0.780364     0.007504
NI3693   NI        0.258461    0.551191    0.701448     0.004307
AU3694   AU        0.299189    0.494750    0.718092     0.007504
AU3695   AU        0.295681    0.537668    0.748646     0.007504
AU3696   AU        0.331869    0.512442    0.752313     0.007504
AU3697   AU        0.334475    0.533432    0.714640     0.007504
NI3698   NI        0.375825    0.511968    0.713413     0.004307
AU3699   AU        0.370197    0.544646    0.745221     0.007504
AU3700   AU        0.401457    0.503116    0.750140     0.007504
NI3701   NI        0.412894    0.549113    0.731211     0.004307
NI3702   NI        0.438036    0.513459    0.729583     0.004307
AU3703   AU        0.441214    0.526241    0.771781     0.007504
AU3704   AU        0.480333    0.499782    0.753647     0.007504
NI3705   NI        0.500328    0.537671    0.723157     0.004307
NI3706   NI        0.518003    0.494339    0.711470     0.004307
AU3707   AU        0.517796    0.572689    0.752875     0.007504
AU3708   AU        0.525588    0.522693    0.753117     0.007504
AU3709   AU        0.547905    0.559749    0.718489     0.007504
AU3710   AU        0.566126    0.519035    0.725266     0.007504
AU3711   AU        0.562638    0.550987    0.764786     0.007504
NI3712   NI        0.623059    0.513072    0.771855     0.004307
AU3713   AU        0.599607    0.544042    0.742197     0.007504
AU3714   AU        0.645546    0.507490    0.716368     0.007504
AU3715   AU        0.646401    0.544173    0.742670     0.007504
AU3716   AU        0.683159    0.510346    0.750351     0.007504
AU3717   AU        0.684319    0.546928    0.711938     0.007504
AU3718   AU        0.721095    0.510244    0.714713     0.007504
NI3719   NI        0.150653    0.579998    0.735079     0.004307
NI3720   NI        0.195309    0.618254    0.760583     0.004307
NI3721   NI        0.186478    0.649145    0.716058     0.004307
AU3722   AU        0.218111    0.570654    0.716070     0.007504
NI3723   NI        0.232857    0.596890    0.753622     0.004307
AU3724   AU        0.269548    0.576417    0.748650     0.007504
AU3725   AU        0.260322    0.615623    0.722353     0.007504
AU3726   AU        0.296306    0.567538    0.713258     0.007504
AU3727   AU        0.306441    0.608020    0.740694     0.007504
AU3728   AU        0.333815    0.570488    0.745066     0.007504
NI3729   NI        0.327205    0.594082    0.706416     0.004307
NI3730   NI        0.374263    0.576513    0.713391     0.004307
AU3731   AU        0.359383    0.614471    0.741902     0.007504
AU3732   AU        0.402862    0.588344    0.751865     0.007504
AU3733   AU        0.398541    0.622764    0.716144     0.007504
NI3734   NI        0.443757    0.591314    0.725813     0.004307
AU3735   AU        0.457615    0.621020    0.754036     0.007504
NI3736   NI        0.460445    0.555280    0.735395     0.004307
AU3737   AU        0.474724    0.627862    0.715407     0.007504
NI3738   NI        0.496048    0.577629    0.709795     0.004307
AU3739   AU        0.509437    0.620526    0.748156     0.007504
AU3740   AU        0.555702    0.600640    0.762982     0.007504
AU3741   AU        0.553923    0.634277    0.725997     0.007504
AU3742   AU        0.586384    0.592571    0.725948     0.007504
NI3743   NI        0.593929    0.633623    0.755055     0.004307
NI3744   NI        0.618666    0.581826    0.753048     0.004307
AU3745   AU        0.623785    0.622917    0.724745     0.007504
AU3746   AU        0.662184    0.588937    0.724133     0.007504
NI3747   NI        0.647255    0.612555    0.765382     0.004307
NI3748   NI        0.690174    0.559158    0.756855     0.004307
NI3749   NI        0.706017    0.616074    0.715342     0.004307
NI3750   NI        0.725434    0.548074    0.734567     0.004307
NI3751   NI        0.234745    0.648840    0.744664     0.004307
NI3752   NI        0.286164    0.631905    0.776527     0.004307
NI3753   NI        0.264856    0.696311    0.749100     0.004307
AU3754   AU        0.290764    0.655299    0.729821     0.007504
NI3755   NI        0.324564    0.669654    0.782865     0.004307
AU3756   AU        0.332672    0.647300    0.741513     0.007504
AU3757   AU        0.326680    0.695238    0.725954     0.007504
AU3758   AU        0.366997    0.660534    0.717257     0.007504
NI3759   NI        0.366051    0.684119    0.755710     0.004307
AU3760   AU        0.410106    0.635462    0.759728     0.007504
AU3761   AU        0.402010    0.698511    0.721302     0.007504
AU3762   AU        0.436729    0.657444    0.724695     0.007504
NI3763   NI        0.450424    0.699312    0.759269     0.004307
AU3764   AU        0.482368    0.665995    0.746418     0.007504
AU3765   AU        0.471876    0.680445    0.701271     0.007504
AU3766   AU        0.511177    0.648101    0.705349     0.007504
NI3767   NI        0.525771    0.692175    0.793366     0.004307
NI3768   NI        0.537489    0.631293    0.788329     0.004307
NI3769   NI        0.526506    0.664620    0.748949     0.004307
NI3770   NI        0.592704    0.665818    0.715844     0.004307
NI3771   NI        0.549215    0.738393    0.727979     0.004307
NI3772   NI        0.656988    0.661263    0.720500     0.004307
NI3773   NI        0.632771    0.701292    0.706075     0.004307
NI3774   NI        0.687982    0.695106    0.720054     0.004307
NI3775   NI        0.294381    0.733024    0.723522     0.004307
NI3776   NI        0.349645    0.732340    0.723609     0.004307
NI3777   NI        0.392894    0.725001    0.754938     0.004307
NI3778   NI        0.394367    0.761448    0.719361     0.004307
NI3779   NI        0.448141    0.717276    0.721881     0.004307
NI3780   NI        0.490123    0.736610    0.766158     0.004307
NI3781   NI        0.481975    0.766609    0.730317     0.004307
AU3782   AU        0.493626    0.711223    0.729349     0.007504
NI3783   NI        0.592412    0.704396    0.733740     0.004307
NI3784   NI        0.398475    0.206597    0.801407     0.004307
NI3785   NI        0.480029    0.180704    0.783321     0.004307
NI3786   NI        0.248309    0.257372    0.803090     0.004307
NI3787   NI        0.337148    0.276495    0.810934     0.004307
NI3788   NI        0.360404    0.231598    0.799975     0.004307
NI3789   NI        0.381031    0.247003    0.840379     0.004307
NI3790   NI        0.381114    0.273935    0.798875     0.004307
NI3791   NI        0.422833    0.249562    0.816412     0.004307
NI3792   NI        0.405356    0.295883    0.824493     0.004307
NI3793   NI        0.478850    0.271837    0.808227     0.004307
NI3794   NI        0.491379    0.224548    0.803395     0.004307
NI3795   NI        0.512824    0.301153    0.846734     0.004307
NI3796   NI        0.543998    0.226742    0.797041     0.004307
NI3797   NI        0.632214    0.299853    0.784344     0.004307
NI3798   NI        0.258334    0.306594    0.809849     0.004307
NI3799   NI        0.295313    0.282928    0.803639     0.004307
NI3800   NI        0.311582    0.319118    0.811875     0.004307
NI3801   NI        0.321643    0.350160    0.866474     0.004307
AU3802   AU        0.325843    0.350405    0.775645     0.007504
AU3803   AU        0.356530    0.317932    0.800243     0.007504
AU3804   AU        0.389744    0.347878    0.828010     0.007504
NI3805   NI        0.353988    0.320419    0.842807     0.004307
AU3806   AU        0.403727    0.332294    0.787310     0.007504
AU3807   AU        0.431685    0.288240    0.788694     0.007504
NI3808   NI        0.421398    0.333960    0.862072     0.004307
NI3809   NI        0.453681    0.301738    0.834109     0.004307
AU3810   AU        0.504716    0.313423    0.802411     0.007504
NI3811   NI        0.532071    0.266720    0.803874     0.004307
NI3812   NI        0.486638    0.382927    0.869105     0.004307
NI3813   NI        0.573243    0.304258    0.802033     0.004307
AU3814   AU        0.544153    0.345061    0.794199     0.007504
NI3815   NI        0.597268    0.277764    0.772646     0.004307
NI3816   NI        0.598130    0.382222    0.831433     0.004307
NI3817   NI        0.602526    0.337152    0.798889     0.004307
NI3818   NI        0.152987    0.431631    0.773900     0.004307
NI3819   NI        0.213976    0.362341    0.792200     0.004307
NI3820   NI        0.256691    0.349206    0.812562     0.004307
NI3821   NI        0.251715    0.398829    0.805332     0.004307
AU3822   AU        0.289365    0.368247    0.795539     0.007504
NI3823   NI        0.305075    0.393739    0.849461     0.004307
AU3824   AU        0.330843    0.357700    0.820453     0.007504
AU3825   AU        0.324823    0.397808    0.784177     0.007504
AU3826   AU        0.366599    0.369866    0.794531     0.007504
AU3827   AU        0.349384    0.404735    0.826364     0.007504
AU3828   AU        0.431046    0.361015    0.817765     0.007504
AU3829   AU        0.411384    0.398793    0.789699     0.007504
AU3830   AU        0.438138    0.363594    0.767485     0.007504
AU3831   AU        0.436083    0.411014    0.833575     0.007504
NI3832   NI        0.471778    0.389800    0.825104     0.004307
AU3833   AU        0.474166    0.433886    0.811686     0.007504
NI3834   NI        0.506051    0.362858    0.802927     0.004307
AU3835   AU        0.514912    0.401961    0.825944     0.007504
NI3836   NI        0.553304    0.376488    0.827863     0.004307
AU3837   AU        0.543466    0.406936    0.790620     0.007504
AU3838   AU        0.582680    0.375606    0.783244     0.007504
NI3839   NI        0.559195    0.421826    0.835987     0.004307
NI3840   NI        0.653121    0.329518    0.811728     0.004307
AU3841   AU        0.618116    0.411607    0.766899     0.007504
NI3842   NI        0.651339    0.377502    0.831100     0.004307
NI3843   NI        0.623474    0.379807    0.797324     0.004307
NI3844   NI        0.201720    0.449087    0.791285     0.004307
NI3845   NI        0.191693    0.391072    0.773083     0.004307
NI3846   NI        0.244248    0.447514    0.820595     0.004307
NI3847   NI        0.227398    0.508481    0.835699     0.004307
NI3848   NI        0.287506    0.430531    0.818787     0.004307
AU3849   AU        0.295170    0.477529    0.816451     0.007504
NI3850   NI        0.321897    0.437969    0.843991     0.004307
AU3851   AU        0.332330    0.482744    0.788347     0.007504
AU3852   AU        0.342170    0.442780    0.803155     0.007504
AU3853   AU        0.369403    0.480624    0.826602     0.007504
AU3854   AU        0.390751    0.433118    0.818795     0.007504
AU3855   AU        0.380027    0.463409    0.783497     0.007504
AU3856   AU        0.430768    0.439930    0.790026     0.007504
AU3857   AU        0.429990    0.459260    0.831259     0.007504
NI3858   NI        0.480546    0.429427    0.858424     0.004307
AU3859   AU        0.458228    0.478867    0.795345     0.007504
AU3860   AU        0.516122    0.448059    0.795507     0.007504
AU3861   AU        0.478909    0.476542    0.836107     0.007504
NI3862   NI        0.554465    0.463954    0.803619     0.004307
AU3863   AU        0.559496    0.502350    0.778132     0.007504
AU3864   AU        0.585561    0.422570    0.800111     0.007504
NI3865   NI        0.568677    0.501132    0.825202     0.004307
NI3866   NI        0.586745    0.462573    0.831482     0.004307
NI3867   NI        0.633465    0.458672    0.766471     0.004307
NI3868   NI        0.624520    0.436869    0.801820     0.004307
NI3869   NI        0.662419    0.453990    0.803894     0.004307
NI3870   NI        0.215007    0.536495    0.788476     0.004307
NI3871   NI        0.272811    0.513905    0.822411     0.004307
NI3872   NI        0.259542    0.552342    0.787689     0.004307
AU3873   AU        0.300640    0.521744    0.790461     0.007504
NI3874   NI        0.297869    0.550353    0.821522     0.004307
NI3875   NI        0.337014    0.518314    0.825945     0.004307
AU3876   AU        0.345583    0.549567    0.786877     0.007504
AU3877   AU        0.366773    0.511039    0.784896     0.007504
NI3878   NI        0.365864    0.505311    0.858505     0.004307
AU3879   AU        0.378820    0.530910    0.824583     0.007504
AU3880   AU        0.398227    0.548096    0.779817     0.007504
AU3881   AU        0.412616    0.500658    0.800584     0.007504
AU3882   AU        0.425738    0.546212    0.814346     0.007504
AU3883   AU        0.461736    0.519953    0.813879     0.007504
AU3884   AU        0.488114    0.542443    0.774377     0.007504
AU3885   AU        0.505650    0.497428    0.796007     0.007504
NI3886   NI        0.518733    0.553321    0.846398     0.004307
NI3887   NI        0.507267    0.511076    0.837378     0.004307
AU3888   AU        0.528382    0.536987    0.800320     0.007504
NI3889   NI        0.591574    0.531800    0.809432     0.004307
NI3890   NI        0.564717    0.547404    0.843097     0.004307
NI3891   NI        0.592460    0.477186    0.791709     0.004307
NI3892   NI        0.647639    0.569497    0.785067     0.004307
NI3893   NI        0.662701    0.498974    0.791643     0.004307
NI3894   NI        0.170151    0.577781    0.786086     0.004307
AU3895   AU        0.300522    0.572294    0.782365     0.007504
NI3896   NI        0.329453    0.576139    0.818268     0.004307
AU3897   AU        0.324163    0.615503    0.783976     0.007504
AU3898   AU        0.363284    0.587760    0.781896     0.007504
NI3899   NI        0.340963    0.639046    0.819530     0.004307
NI3900   NI        0.441262    0.589576    0.830533     0.004307
AU3901   AU        0.405468    0.591028    0.802085     0.007504
AU3902   AU        0.445055    0.576376    0.777859     0.007504
NI3903   NI        0.399687    0.636243    0.813165     0.004307
NI3904   NI        0.477317    0.564547    0.816005     0.004307
NI3905   NI        0.444547    0.621726    0.802731     0.004307
AU3906   AU        0.485387    0.595539    0.788714     0.007504
NI3907   NI        0.493485    0.639577    0.785675     0.004307
NI3908   NI        0.523172    0.594414    0.816573     0.004307
NI3909   NI        0.581706    0.609489    0.798669     0.004307
NI3910   NI        0.562392    0.575547    0.810722     0.004307
NI3911   NI        0.610896    0.568668    0.806130     0.004307
AU3912   AU        0.362733    0.638491    0.781014     0.007504
NI3913   NI        0.437555    0.690685    0.803946     0.004307
NI3914   NI        0.442798    0.655383    0.778630     0.004307
NI3915   NI        0.457025    0.660988    0.831763     0.004307
NI3916   NI        0.566149    0.668571    0.760509     0.004307
AU3917   AU        0.393244    0.390700    0.836166     0.007504
NI3918   NI        0.483165    0.341829    0.835530     0.004307
NI3919   NI        0.433244    0.386599    0.872963     0.004307
NI3920   NI        0.372671    0.407448    0.880709     0.004307
NI3921   NI        0.387818    0.539487    0.876443     0.004307
NI3922   NI        0.392256    0.459012    0.858942     0.004307
NI3923   NI        0.472068    0.515420    0.864713     0.004307
NI3924   NI        0.517215    0.445574    0.844071     0.004307
NI3925   NI        0.411252    0.503340    0.852148     0.004307
