data_00001
_audit_creation_method   'DISCUS'

_data_chemical_name_common 'Au.cell: Pearson 85'

_cell_length_a             57.1046
_cell_length_b             53.0257
_cell_length_c             57.1046
_cell_angle_alpha     90.0000
_cell_angle_beta      90.0000
_cell_angle_gamma     90.0000

_symmetry_space_group_name_H-M   'P1              '

loop_
_atom_site_label
_atom_site_symbol
_atom_site_fract_x
_atom_site_fract_y
_atom_site_fract_z
_atom_site_u_iso_or_equiv
PT1   PT        0.394848    0.269204    0.037571     0.004505
AU2   AU        0.467432    0.267205    0.037757     0.007504
PT3   PT        0.540054    0.268187    0.037294     0.004505
AU4   AU        0.324993    0.345745    0.038980     0.007504
PT5   PT        0.359448    0.304909    0.038264     0.004505
AU6   AU        0.356815    0.343972    0.000714     0.007504
AU7   AU        0.432764    0.306167    0.038685     0.007504
AU8   AU        0.467411    0.346078    0.037254     0.007504
PT9   PT        0.504448    0.307740    0.038126     0.004505
PT10   PT        0.539636    0.346762    0.039043     0.004505
PT11   PT        0.576943    0.306386    0.037470     0.004505
AU12   AU        0.610715    0.348214    0.036739     0.007504
PT13   PT        0.289874    0.383085    0.037767     0.004505
PT14   PT        0.323398    0.420571    0.039085     0.004505
PT15   PT        0.361746    0.381498    0.036556     0.004505
AU16   AU        0.396983    0.422430    0.037431     0.007504
AU17   AU        0.434162    0.386122    0.035457     0.007504
PT18   PT        0.433952    0.425648    0.002154     0.004505
PT19   PT        0.469067    0.386744    0.002684     0.004505
AU20   AU        0.468440    0.423727    0.036161     0.007504
PT21   PT        0.503739    0.385337    0.037202     0.004505
PT22   PT        0.501975    0.423302    0.001030     0.004505
AU23   AU        0.540062    0.425050    0.036424     0.007504
AU24   AU        0.573782    0.385094    0.037464     0.007504
AU25   AU        0.609825    0.423737    0.038003     0.007504
PT26   PT        0.647917    0.383684    0.037376     0.004505
PT27   PT        0.289926    0.461137    0.038609     0.004505
PT28   PT        0.326579    0.500604    0.040404     0.004505
AU29   AU        0.361747    0.462694    0.038551     0.007504
PT30   PT        0.399737    0.462690    0.004722     0.004505
PT31   PT        0.399032    0.500263    0.037512     0.004505
PT32   PT        0.434664    0.461557    0.037527     0.004505
AU33   AU        0.432843    0.500772    0.002515     0.007504
PT34   PT        0.469033    0.460923    0.001637     0.004505
PT35   PT        0.467558    0.499665    0.036762     0.004505
PT36   PT        0.502935    0.461470    0.037258     0.004505
PT37   PT        0.503413    0.498287    0.003366     0.004505
AU38   AU        0.536729    0.461767    0.001788     0.007504
PT39   PT        0.540247    0.499134    0.037785     0.004505
AU40   AU        0.574822    0.463809    0.036798     0.007504
PT41   PT        0.612152    0.500640    0.037362     0.004505
PT42   PT        0.647908    0.460749    0.037966     0.004505
PT43   PT        0.289172    0.539184    0.037336     0.004505
PT44   PT        0.325825    0.577556    0.037314     0.004505
AU45   AU        0.361055    0.537798    0.037952     0.007504
PT46   PT        0.395233    0.580525    0.038435     0.004505
AU47   AU        0.433315    0.539580    0.036025     0.007504
PT48   PT        0.469206    0.535734    0.003638     0.004505
PT49   PT        0.466232    0.576557    0.036572     0.004505
PT50   PT        0.502114    0.538494    0.038739     0.004505
PT51   PT        0.539763    0.578521    0.037661     0.004505
PT52   PT        0.575444    0.540808    0.037218     0.004505
AU53   AU        0.611274    0.578416    0.036349     0.007504
PT54   PT        0.647181    0.539212    0.036268     0.004505
AU55   AU        0.359276    0.617262    0.037665     0.007504
PT56   PT        0.397390    0.656228    0.038332     0.004505
PT57   PT        0.431408    0.617956    0.037989     0.004505
PT58   PT        0.467484    0.655095    0.038344     0.004505
PT59   PT        0.503453    0.617125    0.037539     0.004505
PT60   PT        0.541416    0.653444    0.037670     0.004505
PT61   PT        0.575350    0.615847    0.036752     0.004505
PT62   PT        0.326183    0.191308    0.109782     0.004505
PT63   PT        0.395674    0.191301    0.107541     0.004505
PT64   PT        0.434265    0.151867    0.108180     0.004505
PT65   PT        0.432310    0.191435    0.073816     0.004505
PT66   PT        0.467340    0.191276    0.106926     0.004505
PT67   PT        0.503536    0.154698    0.107818     0.004505
PT68   PT        0.502763    0.191848    0.073372     0.004505
PT69   PT        0.538945    0.192004    0.107260     0.004505
PT70   PT        0.629659    0.164677    0.098326     0.004505
PT71   PT        0.255200    0.267269    0.107552     0.004505
AU72   AU        0.291451    0.230679    0.108846     0.007504
AU73   AU        0.289687    0.270134    0.072415     0.007504
AU74   AU        0.324786    0.270542    0.106862     0.007504
PT75   PT        0.360161    0.229698    0.108062     0.004505
AU76   AU        0.359733    0.267023    0.072786     0.007504
PT77   PT        0.396624    0.230024    0.072645     0.004505
AU78   AU        0.397141    0.267362    0.107374     0.007504
PT79   PT        0.432339    0.230434    0.107022     0.004505
AU80   AU        0.431564    0.268481    0.073271     0.007504
PT81   PT        0.466693    0.230632    0.071483     0.004505
PT82   PT        0.468930    0.267667    0.105508     0.004505
PT83   PT        0.501933    0.228340    0.106611     0.004505
PT84   PT        0.503762    0.269594    0.070995     0.004505
PT85   PT        0.537601    0.229498    0.073134     0.004505
AU86   AU        0.540723    0.269990    0.106032     0.007504
PT87   PT        0.572914    0.229810    0.106687     0.004505
PT88   PT        0.574995    0.268995    0.072279     0.004505
PT89   PT        0.610078    0.268494    0.105946     0.004505
AU90   AU        0.646387    0.231966    0.107370     0.007504
PT91   PT        0.645413    0.269463    0.073386     0.004505
PT92   PT        0.682836    0.268181    0.106472     0.004505
PT93   PT        0.219459    0.306334    0.109923     0.004505
AU94   AU        0.254787    0.345608    0.107134     0.007504
AU95   AU        0.290455    0.308613    0.107124     0.007504
PT96   PT        0.291539    0.346795    0.071665     0.004505
AU97   AU        0.325037    0.305701    0.072367     0.007504
AU98   AU        0.324584    0.344509    0.106012     0.007504
PT99   PT        0.360784    0.306395    0.106720     0.004505
AU100   AU        0.359681    0.343839    0.071163     0.007504
PT101   PT        0.396292    0.305479    0.072317     0.004505
PT102   PT        0.397124    0.345654    0.105791     0.004505
PT103   PT        0.432395    0.305503    0.106416     0.004505
PT104   PT        0.430260    0.344854    0.071932     0.004505
AU105   AU        0.467687    0.306000    0.071448     0.007504
AU106   AU        0.465661    0.344460    0.104576     0.007504
AU107   AU        0.503987    0.308628    0.104526     0.007504
PT108   PT        0.502598    0.347010    0.070150     0.004505
AU109   AU        0.540023    0.307803    0.071955     0.007504
PT110   PT        0.539322    0.345068    0.105494     0.004505
AU111   AU        0.576238    0.308151    0.106881     0.007504
AU112   AU        0.575251    0.344058    0.071387     0.007504
PT113   PT        0.610235    0.306041    0.071542     0.004505
PT114   PT        0.609886    0.346220    0.106996     0.004505
AU115   AU        0.646100    0.306148    0.107039     0.007504
AU116   AU        0.646084    0.345476    0.072705     0.007504
PT117   PT        0.683178    0.348570    0.106774     0.004505
PT118   PT        0.714595    0.307558    0.107918     0.004505
AU119   AU        0.184354    0.422059    0.107875     0.007504
PT120   PT        0.218822    0.385170    0.106688     0.004505
PT121   PT        0.217988    0.423665    0.073461     0.004505
AU122   AU        0.254030    0.388080    0.072677     0.007504
AU123   AU        0.254065    0.422143    0.107462     0.007504
PT124   PT        0.289363    0.382130    0.106456     0.004505
PT125   PT        0.289933    0.422499    0.071990     0.004505
AU126   AU        0.325739    0.383652    0.072736     0.007504
PT127   PT        0.325228    0.420153    0.106298     0.004505
AU128   AU        0.360213    0.382990    0.106515     0.007504
PT129   PT        0.361239    0.422998    0.070956     0.004505
PT130   PT        0.396300    0.384670    0.072366     0.004505
AU131   AU        0.396150    0.424150    0.104263     0.007504
AU132   AU        0.430256    0.383543    0.105778     0.007504
AU133   AU        0.433708    0.421784    0.071360     0.007504
PT134   PT        0.470258    0.384814    0.071252     0.004505
AU135   AU        0.467913    0.422990    0.104367     0.007504
AU136   AU        0.504331    0.385062    0.105209     0.007504
AU137   AU        0.505195    0.424978    0.070174     0.007504
PT138   PT        0.540506    0.385226    0.070901     0.004505
PT139   PT        0.540801    0.422919    0.104830     0.004505
PT140   PT        0.575173    0.383454    0.105629     0.004505
PT141   PT        0.575947    0.423738    0.070546     0.004505
PT142   PT        0.610515    0.384535    0.071484     0.004505
PT143   PT        0.610750    0.423657    0.105466     0.004505
PT144   PT        0.646195    0.385385    0.106404     0.004505
AU145   AU        0.646479    0.422540    0.071632     0.007504
PT146   PT        0.683404    0.384509    0.071719     0.004505
PT147   PT        0.682085    0.421868    0.107436     0.004505
PT148   PT        0.719674    0.383848    0.107688     0.004505
PT149   PT        0.718939    0.423896    0.072757     0.004505
PT150   PT        0.753454    0.424303    0.109034     0.004505
PT151   PT        0.184554    0.498523    0.108263     0.004505
AU152   AU        0.218871    0.461234    0.107343     0.007504
PT153   PT        0.218822    0.498247    0.071515     0.004505
PT154   PT        0.253626    0.461950    0.072507     0.004505
AU155   AU        0.253896    0.499544    0.105226     0.007504
PT156   PT        0.289150    0.461966    0.106287     0.004505
PT157   PT        0.288382    0.501369    0.073643     0.004505
AU158   AU        0.326799    0.459777    0.071889     0.007504
AU159   AU        0.324218    0.502288    0.106468     0.007504
AU160   AU        0.361873    0.459499    0.104848     0.007504
PT161   PT        0.361951    0.498332    0.071371     0.004505
PT162   PT        0.397323    0.461256    0.072661     0.004505
AU163   AU        0.395746    0.500948    0.105254     0.007504
PT164   PT        0.434069    0.462553    0.105697     0.004505
AU165   AU        0.433620    0.499858    0.070956     0.007504
PT166   PT        0.468070    0.460328    0.071058     0.004505
AU167   AU        0.467754    0.501823    0.105580     0.007504
PT168   PT        0.502890    0.462977    0.105002     0.004505
PT169   PT        0.503752    0.499552    0.070960     0.004505
AU170   AU        0.539443    0.462719    0.071425     0.007504
AU171   AU        0.538681    0.501028    0.104662     0.007504
AU172   AU        0.575575    0.463297    0.105662     0.007504
PT173   PT        0.575380    0.501830    0.071145     0.004505
PT174   PT        0.610652    0.463094    0.070821     0.004505
AU175   AU        0.611727    0.499862    0.106180     0.007504
PT176   PT        0.646902    0.460689    0.106632     0.004505
AU177   AU        0.647859    0.498905    0.072868     0.007504
AU178   AU        0.683990    0.459010    0.072422     0.007504
PT179   PT        0.682678    0.498935    0.105968     0.004505
PT180   PT        0.716710    0.462261    0.106844     0.004505
AU181   AU        0.716601    0.499015    0.071205     0.007504
PT182   PT        0.750420    0.498322    0.105410     0.004505
PT183   PT        0.217973    0.533593    0.105882     0.004505
PT184   PT        0.253927    0.536236    0.071494     0.004505
PT185   PT        0.254860    0.578954    0.107461     0.004505
PT186   PT        0.287736    0.541572    0.104886     0.004505
PT187   PT        0.290557    0.577256    0.072180     0.004505
AU188   AU        0.325710    0.539158    0.071420     0.007504
PT189   PT        0.326083    0.576614    0.106336     0.004505
PT190   PT        0.360877    0.538272    0.105942     0.004505
AU191   AU        0.359770    0.576779    0.071179     0.007504
AU192   AU        0.398004    0.539841    0.070382     0.007504
AU193   AU        0.394104    0.577197    0.106486     0.007504
PT194   PT        0.429816    0.538592    0.104911     0.004505
PT195   PT        0.432361    0.577306    0.069915     0.004505
PT196   PT        0.465859    0.537846    0.070365     0.004505
PT197   PT        0.465261    0.575750    0.105307     0.004505
PT198   PT        0.504880    0.538083    0.105064     0.004505
AU199   AU        0.500843    0.578035    0.070085     0.007504
AU200   AU        0.537893    0.541077    0.072001     0.007504
AU201   AU        0.539650    0.579379    0.105596     0.007504
AU202   AU        0.577561    0.539541    0.106104     0.007504
PT203   PT        0.575193    0.580038    0.070803     0.004505
PT204   PT        0.611500    0.539656    0.071205     0.004505
PT205   PT        0.610413    0.577837    0.105179     0.004505
AU206   AU        0.646030    0.539604    0.106649     0.007504
AU207   AU        0.646325    0.576851    0.070563     0.007504
PT208   PT        0.681136    0.537785    0.072171     0.004505
PT209   PT        0.682289    0.575159    0.107380     0.004505
AU210   AU        0.718219    0.536882    0.106599     0.007504
PT211   PT        0.216997    0.620369    0.109052     0.004505
AU212   AU        0.253538    0.655801    0.107448     0.007504
AU213   AU        0.288918    0.618365    0.107851     0.007504
AU214   AU        0.290401    0.653323    0.074037     0.007504
PT215   PT        0.323854    0.614815    0.072471     0.004505
PT216   PT        0.325327    0.654607    0.107991     0.004505
PT217   PT        0.359550    0.615353    0.106924     0.004505
AU218   AU        0.360067    0.652239    0.071964     0.007504
AU219   AU        0.398188    0.617418    0.072144     0.007504
PT220   PT        0.396349    0.655179    0.105408     0.004505
PT221   PT        0.432049    0.618045    0.106757     0.004505
PT222   PT        0.433849    0.654553    0.071549     0.004505
AU223   AU        0.466801    0.615978    0.072542     0.007504
PT224   PT        0.467949    0.653389    0.106223     0.004505
AU225   AU        0.501934    0.614475    0.106206     0.007504
AU226   AU        0.502938    0.655053    0.072960     0.007504
PT227   PT        0.538997    0.616628    0.070662     0.004505
PT228   PT        0.537530    0.651922    0.105519     0.004505
AU229   AU        0.574883    0.614737    0.106381     0.007504
PT230   PT        0.574703    0.651938    0.072751     0.004505
AU231   AU        0.610781    0.616523    0.071674     0.007504
AU232   AU        0.609962    0.652344    0.108807     0.007504
PT233   PT        0.646188    0.615414    0.107424     0.004505
PT234   PT        0.645674    0.654356    0.072655     0.004505
PT235   PT        0.681701    0.655282    0.107053     0.004505
PT236   PT        0.718270    0.616302    0.108652     0.004505
PT237   PT        0.288762    0.692154    0.107787     0.004505
PT238   PT        0.324951    0.730843    0.108382     0.004505
PT239   PT        0.361367    0.693604    0.108628     0.004505
PT240   PT        0.397089    0.692170    0.071964     0.004505
PT241   PT        0.396057    0.732238    0.107606     0.004505
PT242   PT        0.431970    0.693147    0.105158     0.004505
PT243   PT        0.431354    0.729758    0.070050     0.004505
PT244   PT        0.466677    0.692042    0.072292     0.004505
AU245   AU        0.466199    0.731756    0.107027     0.007504
PT246   PT        0.502133    0.694641    0.107131     0.004505
AU247   AU        0.500237    0.731328    0.073395     0.007504
PT248   PT        0.537089    0.691116    0.072933     0.004505
PT249   PT        0.537591    0.730895    0.108141     0.004505
PT250   PT        0.575573    0.691621    0.107090     0.004505
PT251   PT        0.610956    0.730974    0.108543     0.004505
PT252   PT        0.648107    0.693607    0.108574     0.004505
AU253   AU        0.433161    0.769864    0.108331     0.007504
PT254   PT        0.501143    0.767923    0.107775     0.004505
PT255   PT        0.326283    0.116799    0.178019     0.004505
PT256   PT        0.397343    0.115192    0.179316     0.004505
AU257   AU        0.431882    0.076375    0.178685     0.007504
PT258   PT        0.432606    0.116090    0.144964     0.004505
PT259   PT        0.468647    0.115320    0.177477     0.004505
PT260   PT        0.503225    0.079071    0.177084     0.004505
AU261   AU        0.502739    0.116798    0.141456     0.007504
AU262   AU        0.539469    0.116377    0.177803     0.007504
PT263   PT        0.611369    0.117899    0.177675     0.004505
PT264   PT        0.255810    0.192165    0.178533     0.004505
PT265   PT        0.290444    0.154916    0.179293     0.004505
PT266   PT        0.289863    0.191860    0.143224     0.004505
PT267   PT        0.325431    0.154238    0.143935     0.004505
PT268   PT        0.324363    0.190657    0.176888     0.004505
PT269   PT        0.362990    0.152121    0.176387     0.004505
AU270   AU        0.361622    0.191576    0.143388     0.007504
PT271   PT        0.396834    0.155357    0.142441     0.004505
PT272   PT        0.396402    0.192228    0.176549     0.004505
AU273   AU        0.431754    0.155519    0.177250     0.007504
AU274   AU        0.430422    0.191727    0.140795     0.007504
PT275   PT        0.467565    0.152571    0.142049     0.004505
PT276   PT        0.468759    0.190125    0.175871     0.004505
PT277   PT        0.502417    0.152231    0.178482     0.004505
AU278   AU        0.504939    0.191379    0.141691     0.007504
PT279   PT        0.540008    0.155171    0.143443     0.004505
PT280   PT        0.538975    0.191139    0.177927     0.004505
AU281   AU        0.575937    0.154604    0.176426     0.007504
PT282   PT        0.575453    0.191866    0.142464     0.004505
PT283   PT        0.611790    0.154083    0.141772     0.004505
AU284   AU        0.612214    0.190602    0.177143     0.007504
PT285   PT        0.646532    0.154455    0.178572     0.004505
PT286   PT        0.646396    0.190675    0.140818     0.004505
PT287   PT        0.681078    0.193175    0.176415     0.004505
AU288   AU        0.186179    0.270402    0.180448     0.007504
PT289   PT        0.218247    0.229867    0.179545     0.004505
AU290   AU        0.219545    0.267214    0.144803     0.007504
AU291   AU        0.254213    0.229639    0.143209     0.007504
PT292   PT        0.254469    0.265770    0.176944     0.004505
AU293   AU        0.290287    0.228896    0.176160     0.007504
PT294   PT        0.289474    0.267381    0.141782     0.004505
AU295   AU        0.324702    0.227913    0.143534     0.007504
PT296   PT        0.325372    0.267380    0.177019     0.004505
PT297   PT        0.360876    0.228714    0.177705     0.004505
PT298   PT        0.360122    0.268928    0.142925     0.004505
PT299   PT        0.398108    0.230014    0.140801     0.004505
AU300   AU        0.396078    0.268028    0.178009     0.007504
AU301   AU        0.431813    0.230386    0.176815     0.007504
PT302   PT        0.432534    0.269246    0.141562     0.004505
PT303   PT        0.466752    0.227318    0.140722     0.004505
AU304   AU        0.468324    0.270040    0.174832     0.007504
PT305   PT        0.505158    0.230502    0.177040     0.004505
PT306   PT        0.502442    0.268055    0.140862     0.004505
AU307   AU        0.538814    0.230574    0.141794     0.007504
PT308   PT        0.539085    0.266093    0.177226     0.004505
PT309   PT        0.576407    0.228755    0.177509     0.004505
AU310   AU        0.575706    0.270714    0.140416     0.007504
PT311   PT        0.609440    0.230781    0.141005     0.004505
AU312   AU        0.609878    0.266885    0.176936     0.007504
PT313   PT        0.647360    0.231364    0.176743     0.004505
AU314   AU        0.646375    0.268683    0.142726     0.007504
AU315   AU        0.681741    0.232253    0.143661     0.007504
AU316   AU        0.683749    0.269100    0.178104     0.007504
PT317   PT        0.718220    0.230307    0.178762     0.004505
PT318   PT        0.717514    0.269565    0.142198     0.004505
PT319   PT        0.752346    0.268721    0.178717     0.004505
PT320   PT        0.151144    0.307577    0.179907     0.004505
PT321   PT        0.185234    0.307287    0.144902     0.004505
AU322   AU        0.184203    0.345811    0.179170     0.007504
AU323   AU        0.219324    0.307276    0.178369     0.007504
AU324   AU        0.219289    0.345286    0.143813     0.007504
AU325   AU        0.256392    0.304327    0.142543     0.007504
AU326   AU        0.254251    0.342726    0.178114     0.007504
PT327   PT        0.288460    0.305070    0.178292     0.004505
PT328   PT        0.289251    0.345561    0.140568     0.004505
PT329   PT        0.324137    0.307525    0.141839     0.004505
PT330   PT        0.324770    0.345427    0.175760     0.004505
AU331   AU        0.359257    0.306122    0.176207     0.007504
PT332   PT        0.359231    0.343659    0.139948     0.004505
PT333   PT        0.397384    0.304790    0.141086     0.004505
AU334   AU        0.397062    0.345512    0.176612     0.007504
AU335   AU        0.432943    0.307003    0.176205     0.007504
AU336   AU        0.432113    0.345114    0.141517     0.007504
AU337   AU        0.470131    0.307413    0.138602     0.007504
PT338   PT        0.465676    0.346173    0.177914     0.004505
PT339   PT        0.503039    0.306836    0.176905     0.004505
AU340   AU        0.504963    0.346281    0.140852     0.007504
PT341   PT        0.538517    0.306184    0.140674     0.004505
AU342   AU        0.540188    0.344438    0.176141     0.007504
AU343   AU        0.575661    0.305875    0.176462     0.007504
AU344   AU        0.576206    0.345216    0.141193     0.007504
AU345   AU        0.611111    0.305902    0.141021     0.007504
AU346   AU        0.612785    0.344858    0.174509     0.007504
PT347   PT        0.647597    0.308488    0.176346     0.004505
PT348   PT        0.647619    0.347865    0.139659     0.004505
PT349   PT        0.682319    0.306638    0.142869     0.004505
AU350   AU        0.684353    0.344737    0.177236     0.007504
AU351   AU        0.718611    0.307540    0.176839     0.007504
AU352   AU        0.718377    0.345358    0.141988     0.007504
PT353   PT        0.753121    0.307628    0.142171     0.004505
AU354   AU        0.754683    0.346547    0.177675     0.007504
PT355   PT        0.787248    0.305019    0.178615     0.004505
PT356   PT        0.113921    0.423596    0.177309     0.004505
PT357   PT        0.147787    0.385000    0.178278     0.004505
PT358   PT        0.149893    0.422082    0.143057     0.004505
PT359   PT        0.185004    0.385408    0.145789     0.004505
AU360   AU        0.183781    0.424680    0.178610     0.007504
PT361   PT        0.217864    0.383384    0.179864     0.004505
AU362   AU        0.217051    0.423938    0.141705     0.007504
AU363   AU        0.251594    0.383229    0.142137     0.007504
PT364   PT        0.252976    0.422928    0.176617     0.004505
PT365   PT        0.289242    0.384540    0.174344     0.004505
AU366   AU        0.288910    0.422858    0.139779     0.007504
AU367   AU        0.325135    0.384033    0.141903     0.007504
AU368   AU        0.325156    0.424501    0.178320     0.007504
PT369   PT        0.360812    0.384689    0.174720     0.004505
AU370   AU        0.360753    0.421541    0.139976     0.007504
AU371   AU        0.395662    0.383743    0.140834     0.007504
PT372   PT        0.397610    0.424765    0.175209     0.004505
AU373   AU        0.431578    0.384515    0.175088     0.007504
AU374   AU        0.431810    0.422726    0.139981     0.007504
AU375   AU        0.467281    0.384027    0.138320     0.007504
AU376   AU        0.467858    0.422121    0.176105     0.007504
AU377   AU        0.504303    0.382093    0.176814     0.007504
AU378   AU        0.504942    0.424236    0.141133     0.007504
AU379   AU        0.539765    0.384148    0.140869     0.007504
PT380   PT        0.540182    0.422505    0.176820     0.004505
AU381   AU        0.575609    0.383425    0.177778     0.007504
AU382   AU        0.576349    0.423643    0.140227     0.007504
PT383   PT        0.609984    0.385286    0.140965     0.004505
PT384   PT        0.611928    0.422643    0.176501     0.004505
AU385   AU        0.647189    0.382487    0.176160     0.007504
AU386   AU        0.644767    0.422077    0.141680     0.007504
AU387   AU        0.683590    0.386723    0.142646     0.007504
AU388   AU        0.682007    0.423021    0.175470     0.007504
PT389   PT        0.718841    0.385904    0.178108     0.004505
AU390   AU        0.717367    0.421911    0.142381     0.007504
AU391   AU        0.752642    0.386436    0.142725     0.007504
AU392   AU        0.754476    0.423657    0.177519     0.007504
PT393   PT        0.789430    0.385670    0.178510     0.004505
AU394   AU        0.789671    0.421704    0.143138     0.007504
PT395   PT        0.823990    0.423541    0.178227     0.004505
AU396   AU        0.113948    0.498096    0.178140     0.007504
AU397   AU        0.148857    0.458951    0.177455     0.007504
PT398   PT        0.147493    0.496996    0.142776     0.004505
PT399   PT        0.182057    0.459977    0.140738     0.004505
AU400   AU        0.181098    0.500724    0.176453     0.007504
AU401   AU        0.216436    0.461697    0.177020     0.007504
AU402   AU        0.218324    0.496958    0.143168     0.007504
PT403   PT        0.253759    0.460899    0.140951     0.004505
AU404   AU        0.252629    0.500242    0.177459     0.007504
AU405   AU        0.289957    0.460948    0.176152     0.007504
AU406   AU        0.287956    0.502488    0.141112     0.007504
AU407   AU        0.323504    0.463603    0.139145     0.007504
AU408   AU        0.326088    0.500673    0.177560     0.007504
AU409   AU        0.360276    0.460042    0.178195     0.007504
AU410   AU        0.360221    0.499583    0.141344     0.007504
PT411   PT        0.398582    0.462075    0.139336     0.004505
AU412   AU        0.396262    0.497467    0.175159     0.007504
AU413   AU        0.433749    0.462685    0.176266     0.007504
AU414   AU        0.432661    0.500956    0.141583     0.007504
AU415   AU        0.469367    0.461636    0.141913     0.007504
AU416   AU        0.468159    0.498509    0.175905     0.007504
AU417   AU        0.503807    0.462417    0.177727     0.007504
PT418   PT        0.505034    0.500002    0.140091     0.004505
AU419   AU        0.538285    0.462809    0.140582     0.007504
AU420   AU        0.540002    0.500172    0.176475     0.007504
PT421   PT        0.576572    0.460942    0.177713     0.004505
AU422   AU        0.574540    0.502405    0.140821     0.007504
PT423   PT        0.611835    0.460014    0.141591     0.004505
AU424   AU        0.610450    0.500585    0.174041     0.007504
AU425   AU        0.647233    0.461155    0.173735     0.007504
AU426   AU        0.648519    0.500478    0.140471     0.007504
AU427   AU        0.682279    0.460431    0.141545     0.007504
AU428   AU        0.682581    0.501134    0.177327     0.007504
PT429   PT        0.718742    0.459445    0.175020     0.004505
AU430   AU        0.717489    0.498244    0.140893     0.007504
AU431   AU        0.753737    0.461686    0.141091     0.007504
PT432   PT        0.753223    0.498088    0.176493     0.004505
PT433   PT        0.789168    0.461517    0.176156     0.004505
PT434   PT        0.788236    0.499921    0.140979     0.004505
PT435   PT        0.822720    0.500102    0.177491     0.004505
AU436   AU        0.146651    0.537532    0.176206     0.007504
AU437   AU        0.184173    0.537801    0.143361     0.007504
PT438   PT        0.181462    0.577587    0.176604     0.004505
AU439   AU        0.217911    0.540136    0.176931     0.007504
AU440   AU        0.216880    0.581377    0.142515     0.007504
AU441   AU        0.250474    0.540590    0.141275     0.007504
AU442   AU        0.253496    0.578423    0.177488     0.007504
PT443   PT        0.287513    0.537995    0.178478     0.004505
PT444   PT        0.288917    0.578993    0.141998     0.004505
AU445   AU        0.323903    0.541079    0.141385     0.007504
AU446   AU        0.324001    0.578191    0.176876     0.007504
PT447   PT        0.360348    0.538309    0.176472     0.004505
PT448   PT        0.359345    0.579138    0.142251     0.004505
AU449   AU        0.395595    0.539007    0.140860     0.007504
AU450   AU        0.395327    0.575183    0.175989     0.007504
AU451   AU        0.434546    0.538974    0.176426     0.007504
PT452   PT        0.433653    0.579144    0.142178     0.004505
PT453   PT        0.468746    0.538745    0.141588     0.004505
AU454   AU        0.467552    0.577587    0.176798     0.007504
AU455   AU        0.504066    0.537257    0.176909     0.007504
AU456   AU        0.503496    0.577583    0.140627     0.007504
PT457   PT        0.537989    0.539171    0.140300     0.004505
PT458   PT        0.541308    0.579911    0.177057     0.004505
AU459   AU        0.575254    0.538466    0.174641     0.007504
PT460   PT        0.573678    0.579096    0.141558     0.004505
PT461   PT        0.611904    0.539156    0.139864     0.004505
AU462   AU        0.609477    0.576389    0.175963     0.007504
PT463   PT        0.646960    0.538897    0.176603     0.004505
PT464   PT        0.646283    0.577958    0.142377     0.004505
AU465   AU        0.683725    0.536703    0.141091     0.007504
AU466   AU        0.682199    0.576786    0.175075     0.007504
AU467   AU        0.717645    0.536394    0.177553     0.007504
PT468   PT        0.719336    0.576084    0.141589     0.004505
PT469   PT        0.751729    0.535957    0.142154     0.004505
PT470   PT        0.753474    0.575244    0.176147     0.004505
PT471   PT        0.786312    0.536633    0.178523     0.004505
PT472   PT        0.148702    0.616605    0.177945     0.004505
PT473   PT        0.182662    0.617010    0.144432     0.004505
AU474   AU        0.182714    0.653968    0.179899     0.007504
AU475   AU        0.217897    0.617305    0.177777     0.007504
PT476   PT        0.218807    0.654407    0.144853     0.004505
PT477   PT        0.253735    0.616962    0.142911     0.004505
PT478   PT        0.253721    0.654559    0.178226     0.004505
PT479   PT        0.287180    0.618631    0.177630     0.004505
AU480   AU        0.289042    0.655821    0.142233     0.007504
PT481   PT        0.322245    0.617430    0.142668     0.004505
PT482   PT        0.323753    0.653245    0.177206     0.004505
AU483   AU        0.362051    0.616343    0.177238     0.007504
AU484   AU        0.361088    0.655203    0.143479     0.007504
PT485   PT        0.396043    0.615009    0.142612     0.004505
AU486   AU        0.394122    0.656481    0.177522     0.007504
AU487   AU        0.433196    0.617712    0.175392     0.007504
PT488   PT        0.431337    0.654857    0.141833     0.004505
PT489   PT        0.469521    0.614234    0.139965     0.004505
PT490   PT        0.468266    0.655423    0.174792     0.004505
AU491   AU        0.504164    0.617365    0.176170     0.007504
AU492   AU        0.503869    0.657484    0.141681     0.007504
PT493   PT        0.539384    0.617209    0.141171     0.004505
PT494   PT        0.539680    0.656035    0.178127     0.004505
AU495   AU        0.577702    0.617770    0.178806     0.007504
AU496   AU        0.575985    0.654584    0.142755     0.007504
AU497   AU        0.611459    0.614451    0.142374     0.007504
AU498   AU        0.611053    0.656231    0.176833     0.007504
PT499   PT        0.646565    0.615877    0.176086     0.004505
PT500   PT        0.646928    0.656580    0.143897     0.004505
PT501   PT        0.680849    0.617455    0.141491     0.004505
AU502   AU        0.681812    0.654910    0.178810     0.007504
PT503   PT        0.718236    0.615884    0.178285     0.004505
PT504   PT        0.716293    0.653619    0.142300     0.004505
PT505   PT        0.751779    0.616079    0.143855     0.004505
AU506   AU        0.755332    0.654135    0.178390     0.007504
PT507   PT        0.786815    0.616621    0.180635     0.004505
PT508   PT        0.217110    0.692038    0.178983     0.004505
AU509   AU        0.253697    0.693124    0.143376     0.007504
AU510   AU        0.254732    0.730441    0.177904     0.007504
PT511   PT        0.288969    0.693342    0.177499     0.004505
PT512   PT        0.290374    0.730433    0.143821     0.004505
AU513   AU        0.325555    0.693480    0.142099     0.007504
PT514   PT        0.325784    0.730539    0.176640     0.004505
PT515   PT        0.360412    0.694656    0.177284     0.004505
PT516   PT        0.360263    0.731312    0.141233     0.004505
AU517   AU        0.396992    0.693474    0.143038     0.007504
AU518   AU        0.395679    0.732779    0.177512     0.007504
PT519   PT        0.432410    0.694115    0.176549     0.004505
PT520   PT        0.433558    0.731273    0.141922     0.004505
PT521   PT        0.468110    0.693313    0.141103     0.004505
AU522   AU        0.466235    0.732753    0.177511     0.007504
PT523   PT        0.503250    0.694693    0.176444     0.004505
AU524   AU        0.502011    0.732242    0.142053     0.007504
PT525   PT        0.538931    0.692464    0.140355     0.004505
PT526   PT        0.539745    0.731237    0.176832     0.004505
AU527   AU        0.575725    0.694432    0.174936     0.007504
PT528   PT        0.574074    0.731994    0.141845     0.004505
PT529   PT        0.610738    0.692757    0.140508     0.004505
PT530   PT        0.610319    0.731296    0.176602     0.004505
AU531   AU        0.647576    0.693814    0.178599     0.007504
PT532   PT        0.646392    0.731015    0.142303     0.004505
PT533   PT        0.682579    0.691281    0.143945     0.004505
PT534   PT        0.682366    0.729941    0.176669     0.004505
PT535   PT        0.719042    0.694387    0.178469     0.004505
AU536   AU        0.290845    0.768921    0.176835     0.007504
PT537   PT        0.324603    0.769094    0.143194     0.004505
AU538   AU        0.326198    0.806404    0.179130     0.007504
AU539   AU        0.361141    0.768040    0.177319     0.007504
PT540   PT        0.398907    0.769933    0.143127     0.004505
PT541   PT        0.396826    0.806708    0.178340     0.004505
AU542   AU        0.431890    0.768411    0.177858     0.007504
AU543   AU        0.433001    0.807557    0.142132     0.007504
PT544   PT        0.466836    0.769396    0.142535     0.004505
AU545   AU        0.467864    0.807992    0.177551     0.007504
AU546   AU        0.503572    0.770176    0.177348     0.007504
PT547   PT        0.504671    0.807413    0.142310     0.004505
PT548   PT        0.537024    0.768736    0.143481     0.004505
PT549   PT        0.539594    0.807020    0.179140     0.004505
AU550   AU        0.575818    0.767557    0.176002     0.007504
PT551   PT        0.611159    0.768520    0.143462     0.004505
PT552   PT        0.610749    0.806558    0.177981     0.004505
PT553   PT        0.646530    0.767370    0.177204     0.004505
PT554   PT        0.432824    0.844546    0.178936     0.004505
AU555   AU        0.503565    0.843703    0.177847     0.007504
PT556   PT        0.395893    0.038153    0.250474     0.004505
PT557   PT        0.466254    0.041188    0.248660     0.004505
PT558   PT        0.540992    0.040985    0.248445     0.004505
AU559   AU        0.255660    0.116952    0.250801     0.007504
PT560   PT        0.291447    0.078208    0.248639     0.004505
PT561   PT        0.289467    0.116396    0.212654     0.004505
AU562   AU        0.326578    0.115945    0.249826     0.007504
PT563   PT        0.362081    0.077092    0.249730     0.004505
PT564   PT        0.361077    0.115266    0.212493     0.004505
PT565   PT        0.396627    0.076298    0.215372     0.004505
AU566   AU        0.395938    0.114758    0.249226     0.007504
PT567   PT        0.431835    0.077564    0.248871     0.004505
PT568   PT        0.432201    0.113519    0.212201     0.004505
PT569   PT        0.467275    0.078315    0.213046     0.004505
AU570   AU        0.467921    0.114192    0.250405     0.007504
PT571   PT        0.504162    0.078013    0.250235     0.004505
AU572   AU        0.503270    0.113541    0.214686     0.007504
PT573   PT        0.539077    0.079225    0.213452     0.004505
PT574   PT        0.539429    0.117164    0.249663     0.004505
PT575   PT        0.574146    0.080101    0.248764     0.004505
PT576   PT        0.576208    0.116124    0.213657     0.004505
AU577   AU        0.611772    0.115548    0.248350     0.007504
AU578   AU        0.646717    0.077800    0.247263     0.007504
PT579   PT        0.645707    0.116953    0.213444     0.004505
PT580   PT        0.679726    0.117348    0.248249     0.004505
PT581   PT        0.183616    0.193023    0.250061     0.004505
PT582   PT        0.218561    0.154325    0.249212     0.004505
AU583   AU        0.218145    0.192636    0.214699     0.007504
PT584   PT        0.256345    0.153495    0.214978     0.004505
AU585   AU        0.254338    0.191394    0.248524     0.007504
AU586   AU        0.290401    0.153296    0.248721     0.007504
AU587   AU        0.290839    0.191349    0.213788     0.007504
AU588   AU        0.326125    0.151598    0.212505     0.007504
PT589   PT        0.325083    0.189651    0.249892     0.004505
AU590   AU        0.361272    0.152423    0.247139     0.007504
PT591   PT        0.364186    0.191428    0.212936     0.004505
PT592   PT        0.397043    0.153301    0.214314     0.004505
AU593   AU        0.396865    0.189173    0.248665     0.007504
PT594   PT        0.431795    0.152841    0.250185     0.004505
PT595   PT        0.431177    0.191234    0.213487     0.004505
AU596   AU        0.467682    0.150162    0.213400     0.007504
PT597   PT        0.466926    0.188645    0.249808     0.004505
PT598   PT        0.503207    0.152688    0.250554     0.004505
AU599   AU        0.503402    0.188583    0.212993     0.007504
AU600   AU        0.539759    0.152342    0.214056     0.007504
PT601   PT        0.540274    0.188999    0.247413     0.004505
AU602   AU        0.576369    0.154094    0.248139     0.007504
AU603   AU        0.574996    0.191740    0.211584     0.007504
AU604   AU        0.611986    0.154782    0.214120     0.007504
AU605   AU        0.613477    0.192711    0.248124     0.007504
AU606   AU        0.647021    0.154356    0.248519     0.007504
PT607   PT        0.647937    0.192604    0.211294     0.004505
PT608   PT        0.680898    0.154992    0.213445     0.004505
PT609   PT        0.683140    0.192357    0.247331     0.004505
AU610   AU        0.715873    0.154683    0.247933     0.007504
PT611   PT        0.717127    0.193088    0.212791     0.004505
PT612   PT        0.751239    0.193995    0.248814     0.004505
PT613   PT        0.113904    0.270337    0.246199     0.004505
PT614   PT        0.148942    0.231948    0.249053     0.004505
PT615   PT        0.152067    0.271348    0.214905     0.004505
PT616   PT        0.183648    0.233188    0.216526     0.004505
AU617   AU        0.184231    0.270276    0.250122     0.007504
PT618   PT        0.218438    0.229862    0.248759     0.004505
AU619   AU        0.219840    0.267817    0.215476     0.007504
PT620   PT        0.254199    0.226862    0.212507     0.004505
AU621   AU        0.253247    0.267313    0.250145     0.007504
PT622   PT        0.290398    0.227447    0.248760     0.004505
AU623   AU        0.289092    0.267346    0.214328     0.007504
PT624   PT        0.326620    0.229739    0.210872     0.004505
PT625   PT        0.324202    0.266355    0.248806     0.004505
AU626   AU        0.362594    0.228324    0.247730     0.007504
PT627   PT        0.359426    0.266592    0.211911     0.004505
AU628   AU        0.397021    0.229108    0.213522     0.007504
PT629   PT        0.398352    0.266539    0.250152     0.004505
AU630   AU        0.432109    0.228101    0.249835     0.007504
AU631   AU        0.433200    0.269333    0.210357     0.007504
AU632   AU        0.467943    0.230092    0.211667     0.007504
AU633   AU        0.470444    0.268510    0.250035     0.007504
PT634   PT        0.504060    0.229649    0.247105     0.004505
AU635   AU        0.503652    0.268111    0.212363     0.007504
AU636   AU        0.540314    0.227808    0.213034     0.007504
AU637   AU        0.538066    0.268531    0.248834     0.007504
AU638   AU        0.574344    0.226799    0.251140     0.007504
PT639   PT        0.575541    0.267128    0.212195     0.004505
AU640   AU        0.609975    0.229853    0.212469     0.007504
AU641   AU        0.612442    0.268850    0.248160     0.007504
AU642   AU        0.649248    0.229034    0.249954     0.007504
AU643   AU        0.648537    0.269456    0.211390     0.007504
PT644   PT        0.682739    0.230043    0.211609     0.004505
PT645   PT        0.681473    0.268174    0.247068     0.004505
AU646   AU        0.715545    0.229665    0.248381     0.007504
PT647   PT        0.717953    0.269505    0.213811     0.004505
PT648   PT        0.750882    0.231352    0.214168     0.004505
PT649   PT        0.753557    0.267348    0.248134     0.004505
PT650   PT        0.788275    0.230770    0.249637     0.004505
PT651   PT        0.787588    0.269672    0.214294     0.004505
PT652   PT        0.822576    0.270025    0.250480     0.004505
AU653   AU        0.112623    0.345381    0.250376     0.007504
PT654   PT        0.149820    0.306177    0.250414     0.004505
PT655   PT        0.148510    0.346562    0.214058     0.004505
PT656   PT        0.185672    0.308308    0.213046     0.004505
AU657   AU        0.184297    0.344706    0.248218     0.007504
PT658   PT        0.218866    0.306647    0.250998     0.004505
PT659   PT        0.219027    0.344982    0.213914     0.004505
PT660   PT        0.253923    0.306807    0.214990     0.004505
AU661   AU        0.252122    0.343264    0.249526     0.007504
AU662   AU        0.292141    0.307836    0.249500     0.007504
AU663   AU        0.290552    0.346188    0.213032     0.007504
PT664   PT        0.324331    0.304694    0.212378     0.004505
PT665   PT        0.326132    0.344224    0.250888     0.004505
AU666   AU        0.359337    0.302412    0.247289     0.007504
AU667   AU        0.361353    0.345690    0.214305     0.007504
AU668   AU        0.396245    0.308803    0.211524     0.007504
PT669   PT        0.398661    0.349215    0.249315     0.004505
AU670   AU        0.433760    0.306401    0.247988     0.007504
AU671   AU        0.431054    0.346966    0.213782     0.007504
AU672   AU        0.467812    0.304931    0.211993     0.007504
AU673   AU        0.468143    0.345561    0.248453     0.007504
PT674   PT        0.503816    0.306679    0.247287     0.004505
AU675   AU        0.504332    0.344925    0.213208     0.007504
AU676   AU        0.540234    0.305536    0.211002     0.007504
PT677   PT        0.539412    0.347178    0.249358     0.004505
AU678   AU        0.575948    0.309619    0.249613     0.007504
AU679   AU        0.577320    0.345474    0.212432     0.007504
AU680   AU        0.612643    0.307647    0.211361     0.007504
AU681   AU        0.612847    0.344702    0.249095     0.007504
AU682   AU        0.647175    0.305674    0.247850     0.007504
AU683   AU        0.646694    0.348141    0.211399     0.007504
AU684   AU        0.683680    0.309552    0.212246     0.007504
AU685   AU        0.683348    0.346825    0.248852     0.007504
AU686   AU        0.718353    0.305327    0.249496     0.007504
PT687   PT        0.718444    0.347090    0.212686     0.004505
PT688   PT        0.754103    0.307154    0.212774     0.004505
PT689   PT        0.753779    0.345881    0.249608     0.004505
PT690   PT        0.789797    0.308013    0.249232     0.004505
AU691   AU        0.788643    0.345299    0.213570     0.007504
AU692   AU        0.823069    0.344694    0.250580     0.007504
PT693   PT        0.079250    0.384360    0.249061     0.004505
PT694   PT        0.112563    0.386845    0.213080     0.004505
AU695   AU        0.113169    0.421856    0.249275     0.007504
AU696   AU        0.147469    0.384414    0.248542     0.007504
AU697   AU        0.148529    0.422800    0.212875     0.007504
PT698   PT        0.182501    0.383283    0.213698     0.004505
PT699   PT        0.181961    0.422150    0.250647     0.004505
PT700   PT        0.217378    0.385120    0.248464     0.004505
PT701   PT        0.217884    0.423314    0.213588     0.004505
AU702   AU        0.255442    0.383311    0.215365     0.007504
PT703   PT        0.252952    0.421914    0.250312     0.004505
AU704   AU        0.289894    0.382558    0.249364     0.007504
AU705   AU        0.288422    0.424867    0.214439     0.007504
AU706   AU        0.325805    0.386414    0.211755     0.007504
AU707   AU        0.323304    0.424545    0.249152     0.007504
AU708   AU        0.361979    0.384153    0.247616     0.007504
PT709   PT        0.359633    0.423683    0.213645     0.004505
PT710   PT        0.396852    0.386810    0.212722     0.004505
AU711   AU        0.398325    0.423938    0.247323     0.007504
AU712   AU        0.434397    0.385305    0.247346     0.007504
PT713   PT        0.433695    0.424069    0.209928     0.004505
AU714   AU        0.470032    0.385157    0.212656     0.007504
AU715   AU        0.467265    0.422806    0.251080     0.007504
AU716   AU        0.502185    0.384652    0.249006     0.007504
AU717   AU        0.502104    0.423706    0.211411     0.007504
PT718   PT        0.537412    0.383755    0.212817     0.004505
AU719   AU        0.539743    0.423866    0.247115     0.007504
AU720   AU        0.575365    0.382600    0.248889     0.007504
PT721   PT        0.575759    0.419989    0.212397     0.004505
AU722   AU        0.611255    0.384430    0.212199     0.007504
AU723   AU        0.612881    0.423488    0.248633     0.007504
AU724   AU        0.648417    0.384217    0.247968     0.007504
PT725   PT        0.646103    0.423205    0.211049     0.004505
PT726   PT        0.682874    0.382371    0.213325     0.004505
AU727   AU        0.682798    0.421567    0.246397     0.007504
PT728   PT        0.719409    0.384304    0.248541     0.004505
AU729   AU        0.717235    0.421227    0.210859     0.007504
PT730   PT        0.753938    0.385160    0.213177     0.004505
PT731   PT        0.754101    0.421271    0.248227     0.004505
AU732   AU        0.789576    0.383966    0.248745     0.007504
PT733   PT        0.791033    0.421133    0.213707     0.004505
PT734   PT        0.824672    0.384073    0.213925     0.004505
PT735   PT        0.823656    0.422428    0.250180     0.004505
AU736   AU        0.856832    0.382559    0.249971     0.007504
AU737   AU        0.078731    0.461686    0.247873     0.007504
PT738   PT        0.114214    0.459144    0.214639     0.004505
AU739   AU        0.112176    0.500745    0.249817     0.007504
PT740   PT        0.145991    0.461458    0.249581     0.004505
AU741   AU        0.146235    0.497792    0.212710     0.007504
PT742   PT        0.180861    0.460769    0.213420     0.004505
PT743   PT        0.179715    0.499969    0.248166     0.004505
AU744   AU        0.216110    0.463823    0.248888     0.007504
AU745   AU        0.217406    0.499889    0.210599     0.007504
PT746   PT        0.254989    0.461441    0.210834     0.004505
AU747   AU        0.254027    0.500253    0.247956     0.007504
AU748   AU        0.288466    0.462571    0.248506     0.007504
AU749   AU        0.290073    0.497375    0.211501     0.007504
AU750   AU        0.325334    0.461637    0.212129     0.007504
PT751   PT        0.326976    0.499090    0.247852     0.004505
AU752   AU        0.360220    0.460458    0.248725     0.007504
AU753   AU        0.360380    0.499190    0.213036     0.007504
PT754   PT        0.398803    0.462289    0.211858     0.004505
PT755   PT        0.397568    0.499757    0.249637     0.004505
AU756   AU        0.435919    0.461833    0.246970     0.007504
AU757   AU        0.433224    0.500704    0.212089     0.007504
AU758   AU        0.469603    0.461586    0.212616     0.007504
AU759   AU        0.468509    0.501892    0.248032     0.007504
AU760   AU        0.504423    0.465282    0.248201     0.007504
AU761   AU        0.503273    0.500993    0.212201     0.007504
AU762   AU        0.536224    0.463153    0.213072     0.007504
AU763   AU        0.538890    0.502146    0.250004     0.007504
AU764   AU        0.574638    0.461797    0.248302     0.007504
AU765   AU        0.576008    0.498913    0.212283     0.007504
AU766   AU        0.610591    0.457837    0.213235     0.007504
AU767   AU        0.612078    0.499229    0.249277     0.007504
PT768   PT        0.648437    0.460312    0.247521     0.004505
PT769   PT        0.646592    0.498590    0.210951     0.004505
AU770   AU        0.684196    0.458367    0.212403     0.007504
AU771   AU        0.683302    0.499804    0.247756     0.007504
AU772   AU        0.719112    0.461617    0.248769     0.007504
AU773   AU        0.720328    0.501337    0.211467     0.007504
AU774   AU        0.756179    0.460826    0.211861     0.007504
AU775   AU        0.754514    0.500680    0.248326     0.007504
AU776   AU        0.790650    0.459637    0.248358     0.007504
PT777   PT        0.790552    0.500099    0.213286     0.004505
PT778   PT        0.823060    0.461385    0.212121     0.004505
PT779   PT        0.823511    0.500351    0.249505     0.004505
PT780   PT        0.857271    0.463046    0.249659     0.004505
PT781   PT        0.077283    0.540361    0.249070     0.004505
PT782   PT        0.111798    0.537661    0.213124     0.004505
AU783   AU        0.112076    0.576959    0.248532     0.007504
AU784   AU        0.145968    0.539369    0.247322     0.007504
PT785   PT        0.146844    0.576509    0.211914     0.004505
PT786   PT        0.182660    0.536557    0.211324     0.004505
AU787   AU        0.181665    0.576739    0.249233     0.007504
AU788   AU        0.215071    0.539393    0.248320     0.007504
PT789   PT        0.215866    0.576977    0.211522     0.004505
PT790   PT        0.254359    0.538523    0.214749     0.004505
AU791   AU        0.253145    0.578430    0.245881     0.007504
AU792   AU        0.291293    0.541398    0.250307     0.007504
AU793   AU        0.289121    0.577824    0.212998     0.007504
PT794   PT        0.325040    0.541576    0.212724     0.004505
AU795   AU        0.323157    0.579940    0.249289     0.007504
PT796   PT        0.362547    0.539861    0.248174     0.004505
AU797   AU        0.361147    0.576885    0.210412     0.007504
AU798   AU        0.396655    0.538281    0.211602     0.007504
AU799   AU        0.396928    0.579138    0.247374     0.007504
AU800   AU        0.432318    0.538149    0.246705     0.007504
AU801   AU        0.431071    0.576854    0.211145     0.007504
PT802   PT        0.468412    0.539285    0.212569     0.004505
AU803   AU        0.468632    0.576594    0.247753     0.007504
AU804   AU        0.503377    0.539170    0.249572     0.007504
AU805   AU        0.505329    0.577174    0.212676     0.007504
PT806   PT        0.539738    0.537638    0.211590     0.004505
PT807   PT        0.539283    0.578073    0.248714     0.004505
AU808   AU        0.576070    0.539553    0.246700     0.007504
AU809   AU        0.574649    0.578615    0.212580     0.007504
PT810   PT        0.610807    0.542874    0.213153     0.004505
PT811   PT        0.607580    0.578945    0.249778     0.004505
AU812   AU        0.646949    0.538603    0.249288     0.007504
AU813   AU        0.649959    0.577785    0.212144     0.007504
AU814   AU        0.683556    0.539171    0.212467     0.007504
PT815   PT        0.684260    0.576036    0.247252     0.004505
PT816   PT        0.718995    0.537855    0.246332     0.004505
AU817   AU        0.718841    0.577785    0.211691     0.007504
AU818   AU        0.754335    0.537691    0.213387     0.007504
PT819   PT        0.753951    0.578591    0.247597     0.004505
PT820   PT        0.789664    0.538928    0.249816     0.004505
PT821   PT        0.785919    0.576612    0.213123     0.004505
AU822   AU        0.823392    0.539274    0.214941     0.007504
PT823   PT        0.823409    0.576921    0.250332     0.004505
PT824   PT        0.857033    0.538700    0.249452     0.004505
AU825   AU        0.112794    0.652451    0.248312     0.007504
AU826   AU        0.147522    0.616375    0.249851     0.007504
AU827   AU        0.147945    0.654227    0.215088     0.007504
AU828   AU        0.182177    0.615155    0.212448     0.007504
PT829   PT        0.182351    0.655559    0.250945     0.004505
AU830   AU        0.217402    0.614958    0.248629     0.007504
AU831   AU        0.216339    0.655476    0.214390     0.007504
PT832   PT        0.253011    0.617859    0.212032     0.004505
PT833   PT        0.253616    0.654781    0.247925     0.004505
PT834   PT        0.288575    0.617211    0.246860     0.004505
AU835   AU        0.288398    0.654424    0.211445     0.007504
AU836   AU        0.324475    0.615902    0.213118     0.007504
PT837   PT        0.324012    0.653700    0.247919     0.004505
AU838   AU        0.358815    0.616071    0.248955     0.007504
AU839   AU        0.359386    0.653899    0.212425     0.007504
AU840   AU        0.396341    0.617605    0.212404     0.007504
PT841   PT        0.399953    0.655818    0.247898     0.004505
PT842   PT        0.433098    0.616345    0.246193     0.004505
AU843   AU        0.433083    0.654117    0.211707     0.007504
AU844   AU        0.467850    0.615698    0.211561     0.007504
AU845   AU        0.467909    0.657562    0.246825     0.007504
AU846   AU        0.504670    0.617609    0.248232     0.007504
AU847   AU        0.503199    0.654112    0.212190     0.007504
AU848   AU        0.541121    0.615949    0.213689     0.007504
AU849   AU        0.538181    0.654245    0.248012     0.007504
PT850   PT        0.576292    0.618216    0.248086     0.004505
PT851   PT        0.572849    0.653901    0.211848     0.004505
AU852   AU        0.613447    0.617540    0.211175     0.007504
AU853   AU        0.611396    0.655127    0.247061     0.007504
PT854   PT        0.646755    0.619344    0.248944     0.004505
PT855   PT        0.647026    0.654149    0.211092     0.004505
AU856   AU        0.682548    0.615158    0.210778     0.007504
AU857   AU        0.684544    0.655312    0.250710     0.007504
AU858   AU        0.716575    0.617385    0.247925     0.007504
PT859   PT        0.719973    0.656308    0.213941     0.004505
PT860   PT        0.752497    0.617521    0.213118     0.004505
PT861   PT        0.752957    0.656588    0.249959     0.004505
PT862   PT        0.789262    0.615785    0.247906     0.004505
PT863   PT        0.785989    0.654043    0.215353     0.004505
PT864   PT        0.822599    0.653404    0.250256     0.004505
PT865   PT        0.149157    0.690883    0.249507     0.004505
PT866   PT        0.182142    0.690719    0.212660     0.004505
PT867   PT        0.182570    0.729901    0.249427     0.004505
AU868   AU        0.217201    0.692262    0.248667     0.007504
AU869   AU        0.217155    0.730003    0.214646     0.007504
PT870   PT        0.253168    0.692603    0.213485     0.004505
PT871   PT        0.251935    0.730803    0.247409     0.004505
AU872   AU        0.287959    0.692950    0.248238     0.007504
PT873   PT        0.288463    0.731448    0.211866     0.004505
PT874   PT        0.324374    0.692509    0.213122     0.004505
PT875   PT        0.322384    0.730947    0.248465     0.004505
AU876   AU        0.360300    0.691192    0.249907     0.007504
PT877   PT        0.359465    0.731361    0.212923     0.004505
AU878   AU        0.396100    0.692439    0.213475     0.007504
AU879   AU        0.394864    0.731966    0.249060     0.007504
PT880   PT        0.432802    0.695988    0.249864     0.004505
PT881   PT        0.433823    0.732139    0.214706     0.004505
AU882   AU        0.467673    0.695288    0.212107     0.007504
PT883   PT        0.469032    0.732186    0.248338     0.004505
PT884   PT        0.505361    0.693820    0.248523     0.004505
PT885   PT        0.503547    0.731605    0.211924     0.004505
AU886   AU        0.538827    0.693217    0.213344     0.007504
PT887   PT        0.538489    0.733333    0.246864     0.004505
AU888   AU        0.573726    0.694463    0.248017     0.007504
AU889   AU        0.575358    0.731605    0.210940     0.007504
AU890   AU        0.611082    0.693629    0.211733     0.007504
AU891   AU        0.610650    0.731556    0.247456     0.007504
PT892   PT        0.646483    0.693926    0.247380     0.004505
AU893   AU        0.647104    0.731907    0.212193     0.007504
PT894   PT        0.682782    0.694651    0.214064     0.004505
PT895   PT        0.682683    0.732810    0.251226     0.004505
PT896   PT        0.717744    0.694925    0.249434     0.004505
PT897   PT        0.718064    0.731854    0.214497     0.004505
PT898   PT        0.752767    0.693864    0.214998     0.004505
PT899   PT        0.753786    0.730011    0.250165     0.004505
AU900   AU        0.787141    0.690973    0.248485     0.007504
AU901   AU        0.216229    0.769036    0.250804     0.007504
AU902   AU        0.248999    0.774614    0.175841     0.007504
AU903   AU        0.253321    0.807588    0.252084     0.007504
AU904   AU        0.290095    0.771545    0.249396     0.007504
PT905   PT        0.292036    0.808076    0.214002     0.004505
AU906   AU        0.325660    0.770227    0.213184     0.007504
PT907   PT        0.324577    0.806979    0.250089     0.004505
AU908   AU        0.361221    0.770725    0.247833     0.007504
AU909   AU        0.361244    0.806793    0.212156     0.007504
PT910   PT        0.396448    0.769069    0.211526     0.004505
PT911   PT        0.397217    0.805745    0.248026     0.004505
PT912   PT        0.431492    0.767883    0.249088     0.004505
AU913   AU        0.432097    0.806411    0.213375     0.007504
AU914   AU        0.468217    0.770821    0.213451     0.007504
AU915   AU        0.465703    0.808806    0.249211     0.007504
PT916   PT        0.504379    0.770162    0.249373     0.004505
PT917   PT        0.504710    0.808293    0.212970     0.004505
AU918   AU        0.538174    0.772217    0.213676     0.007504
PT919   PT        0.540725    0.807770    0.250393     0.004505
PT920   PT        0.574580    0.768090    0.248325     0.004505
PT921   PT        0.574455    0.807961    0.213374     0.004505
PT922   PT        0.609178    0.768914    0.212685     0.004505
AU923   AU        0.609447    0.807995    0.249357     0.007504
PT924   PT        0.645597    0.768378    0.249349     0.004505
PT925   PT        0.646110    0.806228    0.213380     0.004505
AU926   AU        0.680931    0.768488    0.214345     0.007504
PT927   PT        0.681445    0.805438    0.248165     0.004505
AU928   AU        0.717434    0.767923    0.249866     0.007504
PT929   PT        0.290249    0.844576    0.248592     0.004505
PT930   PT        0.361146    0.844730    0.250072     0.004505
AU931   AU        0.398226    0.844564    0.214312     0.007504
AU932   AU        0.395866    0.883258    0.250719     0.007504
PT933   PT        0.431072    0.844787    0.251337     0.004505
PT934   PT        0.467788    0.844249    0.214148     0.004505
PT935   PT        0.466241    0.881052    0.249012     0.004505
PT936   PT        0.503914    0.844466    0.248549     0.004505
PT937   PT        0.538800    0.844647    0.215024     0.004505
PT938   PT        0.538085    0.883989    0.252323     0.004505
PT939   PT        0.572226    0.846444    0.250865     0.004505
PT940   PT        0.608238    0.883415    0.248791     0.004505
PT941   PT        0.324220    0.041963    0.319518     0.004505
AU942   AU        0.359129    0.039162    0.285334     0.007504
PT943   PT        0.397296    0.038762    0.317412     0.004505
AU944   AU        0.432875    0.040347    0.283191     0.007504
AU945   AU        0.471170    0.039396    0.321515     0.007504
PT946   PT        0.504146    0.040687    0.283471     0.004505
PT947   PT        0.539612    0.041407    0.319376     0.004505
AU948   AU        0.576097    0.041186    0.284792     0.007504
AU949   AU        0.611535    0.040983    0.318939     0.007504
PT950   PT        0.218903    0.117931    0.284403     0.004505
AU951   AU        0.253783    0.116671    0.321098     0.007504
PT952   PT        0.290308    0.078265    0.320470     0.004505
PT953   PT        0.288172    0.115933    0.284537     0.004505
PT954   PT        0.324815    0.079350    0.284119     0.004505
PT955   PT        0.324737    0.115751    0.320380     0.004505
PT956   PT        0.359647    0.078100    0.319421     0.004505
PT957   PT        0.360913    0.113556    0.285167     0.004505
PT958   PT        0.396688    0.077317    0.284577     0.004505
AU959   AU        0.395590    0.113218    0.320740     0.007504
PT960   PT        0.431064    0.075548    0.319923     0.004505
PT961   PT        0.433645    0.113482    0.285801     0.004505
PT962   PT        0.468571    0.076219    0.285412     0.004505
AU963   AU        0.469259    0.114579    0.319678     0.007504
AU964   AU        0.505354    0.077037    0.320130     0.007504
AU965   AU        0.504096    0.114845    0.286056     0.007504
AU966   AU        0.539593    0.077135    0.283482     0.007504
AU967   AU        0.539642    0.113577    0.320384     0.007504
PT968   PT        0.576983    0.077852    0.318555     0.004505
AU969   AU        0.574786    0.115088    0.284047     0.007504
PT970   PT        0.612689    0.078827    0.283204     0.004505
AU971   AU        0.610961    0.115682    0.320712     0.007504
AU972   AU        0.647015    0.078319    0.321614     0.007504
PT973   PT        0.648347    0.116254    0.283316     0.004505
PT974   PT        0.682821    0.115318    0.319364     0.004505
PT975   PT        0.717686    0.116313    0.283681     0.004505
PT976   PT        0.149591    0.194377    0.284438     0.004505
AU977   AU        0.184564    0.154312    0.285445     0.007504
PT978   PT        0.182824    0.191786    0.321309     0.004505
PT979   PT        0.218357    0.154191    0.321191     0.004505
AU980   AU        0.217861    0.192437    0.284710     0.007504
PT981   PT        0.253558    0.154588    0.283993     0.004505
AU982   AU        0.253192    0.189216    0.320500     0.007504
AU983   AU        0.287961    0.152378    0.318947     0.007504
AU984   AU        0.289450    0.190846    0.286214     0.007504
AU985   AU        0.325699    0.152634    0.283585     0.007504
PT986   PT        0.324359    0.188432    0.321930     0.004505
PT987   PT        0.361211    0.152070    0.320935     0.004505
AU988   AU        0.361575    0.189404    0.284042     0.007504
PT989   PT        0.396840    0.152180    0.284546     0.004505
PT990   PT        0.396798    0.190029    0.317393     0.004505
AU991   AU        0.431187    0.150658    0.319395     0.007504
PT992   PT        0.432907    0.191016    0.285241     0.004505
AU993   AU        0.467934    0.151484    0.285529     0.007504
AU994   AU        0.468786    0.192810    0.320472     0.007504
AU995   AU        0.503851    0.150078    0.321252     0.007504
AU996   AU        0.504044    0.192190    0.281331     0.007504
AU997   AU        0.538567    0.153486    0.284960     0.007504
PT998   PT        0.538214    0.190741    0.320230     0.004505
PT999   PT        0.574933    0.151951    0.319613     0.004505
PT1000   PT        0.574607    0.189157    0.284662     0.004505
AU1001   AU        0.611489    0.152099    0.283794     0.007504
PT1002   PT        0.612485    0.191920    0.322819     0.004505
AU1003   AU        0.646824    0.152823    0.320075     0.007504
PT1004   PT        0.648938    0.190709    0.284832     0.004505
PT1005   PT        0.682450    0.154078    0.285281     0.004505
AU1006   AU        0.682856    0.190171    0.320985     0.007504
PT1007   PT        0.717714    0.152679    0.320021     0.004505
PT1008   PT        0.717241    0.189594    0.284532     0.004505
PT1009   PT        0.751612    0.154451    0.285215     0.004505
PT1010   PT        0.752973    0.191050    0.321103     0.004505
AU1011   AU        0.786623    0.192880    0.283642     0.007504
PT1012   PT        0.115193    0.270113    0.321335     0.004505
AU1013   AU        0.149167    0.230682    0.322745     0.007504
PT1014   PT        0.149165    0.267877    0.285808     0.004505
AU1015   AU        0.183678    0.232187    0.283397     0.007504
AU1016   AU        0.183902    0.269625    0.321100     0.007504
AU1017   AU        0.217888    0.229572    0.320274     0.007504
AU1018   AU        0.218750    0.267845    0.286200     0.007504
AU1019   AU        0.252875    0.227679    0.284626     0.007504
AU1020   AU        0.253638    0.268351    0.320918     0.007504
AU1021   AU        0.289478    0.229142    0.320140     0.007504
PT1022   PT        0.289314    0.268297    0.285364     0.004505
PT1023   PT        0.326472    0.227315    0.283410     0.004505
AU1024   AU        0.324615    0.267495    0.320082     0.007504
AU1025   AU        0.363363    0.228489    0.320382     0.007504
PT1026   PT        0.361398    0.268316    0.284156     0.004505
AU1027   AU        0.396383    0.228833    0.283742     0.007504
PT1028   PT        0.397714    0.266876    0.319214     0.004505
PT1029   PT        0.433122    0.230453    0.318611     0.004505
AU1030   AU        0.432700    0.267943    0.285158     0.007504
PT1031   PT        0.470991    0.229030    0.284186     0.004505
AU1032   AU        0.468229    0.268958    0.320626     0.007504
AU1033   AU        0.504254    0.229546    0.320495     0.007504
PT1034   PT        0.503043    0.268332    0.286177     0.004505
PT1035   PT        0.540514    0.231601    0.287273     0.004505
AU1036   AU        0.540045    0.270961    0.320730     0.007504
AU1037   AU        0.575915    0.230362    0.320209     0.007504
AU1038   AU        0.575812    0.269595    0.284283     0.007504
PT1039   PT        0.614818    0.228797    0.283344     0.004505
PT1040   PT        0.611840    0.267179    0.320578     0.004505
AU1041   AU        0.647154    0.230451    0.321598     0.007504
AU1042   AU        0.647341    0.266761    0.285768     0.007504
PT1043   PT        0.682065    0.228586    0.284915     0.004505
AU1044   AU        0.684242    0.267513    0.319557     0.007504
PT1045   PT        0.718401    0.229657    0.321725     0.004505
PT1046   PT        0.719052    0.266558    0.284113     0.004505
PT1047   PT        0.752886    0.229541    0.286276     0.004505
PT1048   PT        0.753885    0.269085    0.321102     0.004505
PT1049   PT        0.787995    0.231462    0.322187     0.004505
PT1050   PT        0.788102    0.268762    0.284692     0.004505
PT1051   PT        0.824532    0.269012    0.320721     0.004505
PT1052   PT        0.081604    0.308481    0.320751     0.004505
PT1053   PT        0.077380    0.345096    0.284433     0.004505
PT1054   PT        0.115385    0.308357    0.284840     0.004505
PT1055   PT        0.112872    0.345733    0.319675     0.004505
AU1056   AU        0.148425    0.306433    0.318704     0.007504
AU1057   AU        0.147289    0.347050    0.285274     0.007504
AU1058   AU        0.183212    0.308600    0.285226     0.007504
AU1059   AU        0.181429    0.346663    0.319507     0.007504
AU1060   AU        0.218094    0.307611    0.321332     0.007504
AU1061   AU        0.217364    0.343702    0.286021     0.007504
PT1062   PT        0.255537    0.305358    0.286396     0.004505
AU1063   AU        0.253850    0.346433    0.319868     0.007504
AU1064   AU        0.288936    0.306049    0.322326     0.007504
PT1065   PT        0.289748    0.344904    0.286176     0.004505
AU1066   AU        0.324483    0.307808    0.286911     0.007504
AU1067   AU        0.325093    0.346660    0.320508     0.007504
AU1068   AU        0.361740    0.305929    0.319235     0.007504
AU1069   AU        0.360642    0.348332    0.285732     0.007504
AU1070   AU        0.397655    0.307470    0.286453     0.007504
AU1071   AU        0.397598    0.344997    0.323014     0.007504
PT1072   PT        0.433171    0.307797    0.322305     0.004505
AU1073   AU        0.432694    0.345318    0.284786     0.007504
AU1074   AU        0.468772    0.306328    0.285510     0.007504
AU1075   AU        0.467797    0.344158    0.320142     0.007504
AU1076   AU        0.503887    0.308232    0.320703     0.007504
AU1077   AU        0.503925    0.345143    0.284960     0.007504
PT1078   PT        0.537921    0.307688    0.285622     0.004505
AU1079   AU        0.539120    0.347646    0.319773     0.007504
PT1080   PT        0.573845    0.308460    0.320636     0.004505
AU1081   AU        0.574581    0.346172    0.285138     0.007504
AU1082   AU        0.611772    0.308572    0.285698     0.007504
AU1083   AU        0.611076    0.346811    0.321923     0.007504
AU1084   AU        0.649633    0.309563    0.321124     0.007504
AU1085   AU        0.648089    0.345934    0.284604     0.007504
AU1086   AU        0.680964    0.305065    0.283434     0.007504
AU1087   AU        0.682425    0.346391    0.319077     0.007504
AU1088   AU        0.718212    0.305863    0.319619     0.007504
PT1089   PT        0.717982    0.344285    0.284015     0.004505
AU1090   AU        0.754388    0.307124    0.284108     0.007504
AU1091   AU        0.753132    0.344394    0.319536     0.007504
PT1092   PT        0.789540    0.307396    0.319834     0.004505
PT1093   PT        0.790151    0.344869    0.285129     0.004505
PT1094   PT        0.822623    0.306070    0.283858     0.004505
PT1095   PT        0.825043    0.344520    0.318296     0.004505
PT1096   PT        0.859716    0.307135    0.320000     0.004505
PT1097   PT        0.857721    0.344717    0.284527     0.004505
PT1098   PT        0.079172    0.382839    0.318599     0.004505
PT1099   PT        0.078975    0.421507    0.284829     0.004505
PT1100   PT        0.113781    0.383475    0.284210     0.004505
PT1101   PT        0.110740    0.421557    0.320738     0.004505
AU1102   AU        0.145659    0.384613    0.321019     0.007504
AU1103   AU        0.147057    0.422664    0.284267     0.007504
AU1104   AU        0.181626    0.382923    0.282399     0.007504
PT1105   PT        0.180141    0.424071    0.318441     0.004505
PT1106   PT        0.215252    0.384894    0.318519     0.004505
AU1107   AU        0.217494    0.423313    0.284372     0.007504
PT1108   PT        0.255109    0.384620    0.284096     0.004505
AU1109   AU        0.254350    0.423684    0.320483     0.007504
AU1110   AU        0.291481    0.384627    0.320901     0.007504
PT1111   PT        0.288726    0.424442    0.285714     0.004505
AU1112   AU        0.324723    0.385481    0.283289     0.007504
AU1113   AU        0.325385    0.422378    0.320164     0.007504
PT1114   PT        0.361946    0.385033    0.320544     0.004505
PT1115   PT        0.358957    0.425095    0.285451     0.004505
PT1116   PT        0.397373    0.385671    0.283227     0.004505
AU1117   AU        0.395483    0.423093    0.320739     0.007504
AU1118   AU        0.432017    0.382591    0.320168     0.007504
AU1119   AU        0.430745    0.424672    0.283559     0.007504
AU1120   AU        0.468455    0.383383    0.286376     0.007504
AU1121   AU        0.466216    0.423301    0.320391     0.007504
AU1122   AU        0.501899    0.382095    0.320724     0.007504
AU1123   AU        0.505199    0.423669    0.283924     0.007504
AU1124   AU        0.539790    0.384803    0.284967     0.007504
AU1125   AU        0.538420    0.422680    0.319784     0.007504
AU1126   AU        0.576189    0.384321    0.319593     0.007504
AU1127   AU        0.576804    0.423295    0.282655     0.007504
AU1128   AU        0.612583    0.383079    0.283136     0.007504
AU1129   AU        0.610568    0.422657    0.318767     0.007504
AU1130   AU        0.646681    0.384486    0.318663     0.007504
AU1131   AU        0.646152    0.422795    0.284395     0.007504
AU1132   AU        0.683880    0.384052    0.283156     0.007504
AU1133   AU        0.685180    0.422293    0.318545     0.007504
AU1134   AU        0.719791    0.383287    0.319759     0.007504
AU1135   AU        0.721204    0.423410    0.284196     0.007504
AU1136   AU        0.754497    0.380931    0.283949     0.007504
AU1137   AU        0.753700    0.420376    0.321037     0.007504
AU1138   AU        0.789552    0.381525    0.319836     0.007504
PT1139   PT        0.790028    0.423258    0.284627     0.004505
PT1140   PT        0.824130    0.384813    0.283642     0.004505
PT1141   PT        0.825868    0.424627    0.318712     0.004505
AU1142   AU        0.855679    0.384011    0.319163     0.007504
AU1143   AU        0.858377    0.420881    0.282291     0.007504
AU1144   AU        0.078042    0.461994    0.321172     0.007504
PT1145   PT        0.079538    0.501033    0.283969     0.004505
PT1146   PT        0.112323    0.462328    0.283857     0.004505
PT1147   PT        0.110374    0.500527    0.322257     0.004505
PT1148   PT        0.144775    0.463836    0.319937     0.004505
AU1149   AU        0.145058    0.499650    0.283488     0.007504
AU1150   AU        0.180937    0.464352    0.282735     0.007504
AU1151   AU        0.180988    0.500386    0.320448     0.007504
AU1152   AU        0.217049    0.461963    0.320920     0.007504
AU1153   AU        0.217916    0.500955    0.282904     0.007504
AU1154   AU        0.254317    0.461393    0.283935     0.007504
AU1155   AU        0.253641    0.500641    0.318750     0.007504
AU1156   AU        0.288916    0.461175    0.320726     0.007504
AU1157   AU        0.289532    0.498345    0.283949     0.007504
AU1158   AU        0.324402    0.461351    0.285348     0.007504
PT1159   PT        0.327045    0.500898    0.321208     0.004505
AU1160   AU        0.360500    0.461912    0.319635     0.007504
AU1161   AU        0.361024    0.499606    0.284168     0.007504
AU1162   AU        0.394603    0.459898    0.286044     0.007504
PT1163   PT        0.397202    0.499109    0.321458     0.004505
PT1164   PT        0.432133    0.463018    0.317465     0.004505
AU1165   AU        0.432112    0.500712    0.284654     0.007504
AU1166   AU        0.469318    0.463069    0.283016     0.007504
AU1167   AU        0.469575    0.501036    0.318972     0.007504
AU1168   AU        0.503903    0.462954    0.320465     0.007504
AU1169   AU        0.503202    0.500079    0.284790     0.007504
AU1170   AU        0.539423    0.461848    0.283839     0.007504
AU1171   AU        0.538427    0.499750    0.317601     0.007504
AU1172   AU        0.577024    0.462322    0.316877     0.007504
AU1173   AU        0.575805    0.502062    0.282917     0.007504
AU1174   AU        0.611612    0.460040    0.282926     0.007504
AU1175   AU        0.611319    0.499690    0.318128     0.007504
AU1176   AU        0.646759    0.460573    0.318683     0.007504
AU1177   AU        0.646206    0.500911    0.284477     0.007504
AU1178   AU        0.683485    0.460370    0.284364     0.007504
AU1179   AU        0.684439    0.500754    0.320620     0.007504
AU1180   AU        0.719377    0.461666    0.317994     0.007504
AU1181   AU        0.720180    0.500888    0.283300     0.007504
AU1182   AU        0.754823    0.461743    0.283797     0.007504
PT1183   PT        0.754325    0.500323    0.319200     0.004505
AU1184   AU        0.789811    0.460608    0.319836     0.007504
PT1185   PT        0.790813    0.501066    0.285005     0.004505
PT1186   PT        0.824458    0.460059    0.285585     0.004505
PT1187   PT        0.823875    0.498761    0.320452     0.004505
PT1188   PT        0.858029    0.462108    0.318927     0.004505
AU1189   AU        0.856900    0.498013    0.283934     0.007504
PT1190   PT        0.078477    0.538183    0.320101     0.004505
PT1191   PT        0.078154    0.578740    0.283991     0.004505
PT1192   PT        0.111409    0.540838    0.284404     0.004505
AU1193   AU        0.111841    0.577871    0.320325     0.007504
PT1194   PT        0.145048    0.539545    0.319886     0.004505
AU1195   AU        0.145458    0.578831    0.283629     0.007504
PT1196   PT        0.179593    0.538492    0.285683     0.004505
PT1197   PT        0.180160    0.577966    0.318193     0.004505
AU1198   AU        0.217530    0.540520    0.319425     0.007504
PT1199   PT        0.216539    0.578764    0.283748     0.004505
PT1200   PT        0.252109    0.540560    0.282738     0.004505
AU1201   AU        0.252894    0.580192    0.321141     0.007504
AU1202   AU        0.288796    0.540095    0.318784     0.007504
PT1203   PT        0.288839    0.580186    0.284596     0.004505
AU1204   AU        0.326703    0.541904    0.285445     0.007504
AU1205   AU        0.326385    0.577720    0.320150     0.007504
AU1206   AU        0.362264    0.539694    0.319195     0.007504
AU1207   AU        0.360708    0.580453    0.282841     0.007504
AU1208   AU        0.398330    0.540550    0.281899     0.007504
AU1209   AU        0.396279    0.575983    0.318440     0.007504
AU1210   AU        0.432126    0.540173    0.320649     0.007504
AU1211   AU        0.432320    0.577480    0.281839     0.007504
PT1212   PT        0.465204    0.538031    0.283234     0.004505
AU1213   AU        0.466983    0.578118    0.318310     0.007504
AU1214   AU        0.502012    0.539291    0.318712     0.007504
PT1215   PT        0.502682    0.578515    0.285344     0.004505
PT1216   PT        0.538487    0.538686    0.287521     0.004505
PT1217   PT        0.538624    0.577908    0.319784     0.004505
PT1218   PT        0.576681    0.537376    0.318458     0.004505
AU1219   AU        0.573758    0.579657    0.283994     0.007504
AU1220   AU        0.610784    0.539315    0.284963     0.007504
PT1221   PT        0.610768    0.576395    0.318163     0.004505
AU1222   AU        0.649796    0.539105    0.321895     0.007504
AU1223   AU        0.644356    0.579659    0.282965     0.007504
AU1224   AU        0.684598    0.539364    0.282263     0.007504
PT1225   PT        0.683076    0.579231    0.318761     0.004505
AU1226   AU        0.718714    0.537455    0.319614     0.007504
PT1227   PT        0.719159    0.578558    0.283618     0.004505
PT1228   PT        0.754617    0.539680    0.283973     0.004505
AU1229   AU        0.754020    0.580113    0.319636     0.007504
PT1230   PT        0.789465    0.539154    0.319703     0.004505
PT1231   PT        0.789533    0.578111    0.284167     0.004505
PT1232   PT        0.824487    0.539926    0.284914     0.004505
PT1233   PT        0.824433    0.578917    0.318612     0.004505
AU1234   AU        0.859129    0.538599    0.319755     0.007504
PT1235   PT        0.858743    0.578644    0.284672     0.004505
PT1236   PT        0.077790    0.614945    0.320767     0.004505
AU1237   AU        0.112949    0.616491    0.284475     0.007504
PT1238   PT        0.111270    0.654761    0.320428     0.004505
AU1239   AU        0.145694    0.616885    0.319442     0.007504
AU1240   AU        0.146323    0.655489    0.283390     0.007504
AU1241   AU        0.181177    0.617326    0.284520     0.007504
AU1242   AU        0.181525    0.655121    0.319613     0.007504
PT1243   PT        0.215373    0.616835    0.319423     0.004505
AU1244   AU        0.218211    0.656200    0.285130     0.007504
PT1245   PT        0.251952    0.617047    0.282510     0.004505
AU1246   AU        0.252492    0.655078    0.319389     0.007504
PT1247   PT        0.288747    0.618170    0.320137     0.004505
AU1248   AU        0.288745    0.654522    0.283572     0.007504
PT1249   PT        0.323891    0.617429    0.282165     0.004505
AU1250   AU        0.324090    0.653731    0.319332     0.007504
AU1251   AU        0.360392    0.616288    0.321443     0.007504
PT1252   PT        0.362258    0.652919    0.283457     0.004505
PT1253   PT        0.398289    0.616076    0.284642     0.004505
AU1254   AU        0.398958    0.656192    0.320673     0.007504
AU1255   AU        0.432583    0.616609    0.318337     0.007504
AU1256   AU        0.432858    0.655322    0.284648     0.007504
AU1257   AU        0.466258    0.616251    0.282086     0.007504
AU1258   AU        0.467739    0.654670    0.320156     0.007504
PT1259   PT        0.500955    0.614945    0.321092     0.004505
PT1260   PT        0.500929    0.654937    0.283113     0.004505
AU1261   AU        0.539994    0.617939    0.283847     0.007504
AU1262   AU        0.537824    0.654761    0.318975     0.007504
PT1263   PT        0.574913    0.615445    0.320502     0.004505
AU1264   AU        0.576494    0.658033    0.285049     0.007504
AU1265   AU        0.609974    0.615055    0.286189     0.007504
AU1266   AU        0.612135    0.654720    0.319447     0.007504
AU1267   AU        0.646497    0.615185    0.320277     0.007504
PT1268   PT        0.648307    0.657842    0.283881     0.004505
PT1269   PT        0.682375    0.616718    0.283179     0.004505
AU1270   AU        0.682459    0.654344    0.319768     0.007504
PT1271   PT        0.719886    0.616896    0.322142     0.004505
AU1272   AU        0.719487    0.654864    0.285875     0.007504
AU1273   AU        0.754820    0.616542    0.284487     0.007504
PT1274   PT        0.754054    0.653675    0.319747     0.004505
PT1275   PT        0.789134    0.617108    0.320299     0.004505
AU1276   AU        0.788074    0.653680    0.285043     0.007504
PT1277   PT        0.822043    0.615495    0.285350     0.004505
PT1278   PT        0.824777    0.653852    0.320415     0.004505
PT1279   PT        0.858824    0.617592    0.318748     0.004505
PT1280   PT        0.147945    0.693365    0.320924     0.004505
AU1281   AU        0.148027    0.731569    0.283013     0.007504
PT1282   PT        0.182783    0.693674    0.283935     0.004505
AU1283   AU        0.182680    0.732149    0.320109     0.007504
PT1284   PT        0.214668    0.693596    0.321493     0.004505
PT1285   PT        0.218030    0.731126    0.283013     0.004505
AU1286   AU        0.253032    0.694857    0.284909     0.007504
PT1287   PT        0.251113    0.730989    0.321703     0.004505
PT1288   PT        0.288797    0.696014    0.322284     0.004505
AU1289   AU        0.287865    0.733493    0.286893     0.007504
PT1290   PT        0.322972    0.693861    0.284177     0.004505
PT1291   PT        0.323091    0.731030    0.319180     0.004505
AU1292   AU        0.359967    0.694606    0.319350     0.007504
AU1293   AU        0.360479    0.730816    0.283453     0.007504
AU1294   AU        0.397235    0.691766    0.284852     0.007504
PT1295   PT        0.395777    0.732114    0.322405     0.004505
AU1296   AU        0.433405    0.694440    0.321656     0.007504
AU1297   AU        0.431453    0.730867    0.285092     0.007504
AU1298   AU        0.467784    0.693798    0.286256     0.007504
AU1299   AU        0.467401    0.732290    0.320747     0.007504
PT1300   PT        0.502764    0.694575    0.320433     0.004505
AU1301   AU        0.503260    0.731247    0.284230     0.007504
AU1302   AU        0.539952    0.695629    0.284570     0.007504
PT1303   PT        0.539347    0.732423    0.319436     0.004505
AU1304   AU        0.576157    0.694318    0.319487     0.007504
AU1305   AU        0.574618    0.730297    0.284101     0.007504
AU1306   AU        0.611114    0.695621    0.282607     0.007504
PT1307   PT        0.610834    0.732552    0.317868     0.004505
AU1308   AU        0.646166    0.694820    0.320406     0.007504
PT1309   PT        0.647506    0.731168    0.285685     0.004505
PT1310   PT        0.684099    0.694203    0.287838     0.004505
AU1311   AU        0.685017    0.732340    0.320382     0.007504
PT1312   PT        0.719626    0.694088    0.320647     0.004505
PT1313   PT        0.718770    0.732174    0.284141     0.004505
PT1314   PT        0.753287    0.693978    0.283889     0.004505
PT1315   PT        0.752868    0.730221    0.318771     0.004505
PT1316   PT        0.790201    0.692409    0.321026     0.004505
AU1317   AU        0.786695    0.731167    0.284853     0.007504
PT1318   PT        0.182985    0.767464    0.284542     0.004505
AU1319   AU        0.218108    0.769572    0.320274     0.007504
AU1320   AU        0.218136    0.805392    0.284285     0.007504
AU1321   AU        0.252391    0.769737    0.284151     0.007504
AU1322   AU        0.252645    0.807836    0.321871     0.007504
AU1323   AU        0.286132    0.769046    0.321418     0.007504
PT1324   PT        0.290703    0.806010    0.286601     0.004505
PT1325   PT        0.327468    0.769836    0.284297     0.004505
AU1326   AU        0.323325    0.808976    0.320504     0.007504
PT1327   PT        0.359685    0.771070    0.322730     0.004505
PT1328   PT        0.361083    0.807695    0.284748     0.004505
AU1329   AU        0.395406    0.771214    0.285781     0.007504
PT1330   PT        0.395864    0.808612    0.320203     0.004505
PT1331   PT        0.432605    0.770762    0.319237     0.004505
AU1332   AU        0.430333    0.808603    0.284958     0.007504
AU1333   AU        0.466667    0.771423    0.283403     0.007504
PT1334   PT        0.469250    0.808838    0.319681     0.004505
AU1335   AU        0.505456    0.770294    0.318944     0.007504
PT1336   PT        0.502936    0.808054    0.284263     0.004505
AU1337   AU        0.541166    0.770923    0.284101     0.007504
PT1338   PT        0.539835    0.808872    0.320591     0.004505
PT1339   PT        0.575693    0.769390    0.319341     0.004505
AU1340   AU        0.576003    0.807353    0.283901     0.007504
PT1341   PT        0.610153    0.769148    0.284743     0.004505
AU1342   AU        0.610666    0.808587    0.321106     0.007504
PT1343   PT        0.646876    0.770312    0.320163     0.004505
PT1344   PT        0.646221    0.806520    0.283826     0.004505
PT1345   PT        0.682047    0.767969    0.284285     0.004505
AU1346   AU        0.683002    0.806835    0.321214     0.007504
AU1347   AU        0.718491    0.770400    0.320421     0.007504
PT1348   PT        0.716907    0.806018    0.284626     0.004505
AU1349   AU        0.753141    0.768941    0.285682     0.007504
PT1350   PT        0.288628    0.845167    0.320632     0.004505
AU1351   AU        0.326547    0.844745    0.285914     0.007504
PT1352   PT        0.322997    0.881450    0.320637     0.004505
PT1353   PT        0.360578    0.844861    0.321081     0.004505
AU1354   AU        0.360334    0.882115    0.284388     0.007504
AU1355   AU        0.396763    0.846087    0.284682     0.007504
PT1356   PT        0.396001    0.882691    0.319170     0.004505
PT1357   PT        0.433601    0.846299    0.319926     0.004505
PT1358   PT        0.432061    0.882657    0.284117     0.004505
AU1359   AU        0.467191    0.846960    0.285047     0.007504
PT1360   PT        0.468078    0.882908    0.321172     0.004505
AU1361   AU        0.504294    0.845783    0.318940     0.007504
PT1362   PT        0.502000    0.881172    0.283903     0.004505
PT1363   PT        0.537705    0.844759    0.285574     0.004505
PT1364   PT        0.540227    0.883657    0.318626     0.004505
PT1365   PT        0.575473    0.846541    0.320335     0.004505
AU1366   AU        0.574988    0.881707    0.284464     0.007504
PT1367   PT        0.610102    0.845479    0.284814     0.004505
PT1368   PT        0.612404    0.883257    0.318608     0.004505
PT1369   PT        0.647132    0.844775    0.321383     0.004505
PT1370   PT        0.289792    0.040818    0.354932     0.004505
AU1371   AU        0.325181    0.040418    0.392375     0.007504
PT1372   PT        0.359564    0.040469    0.356078     0.004505
PT1373   PT        0.397463    0.037248    0.392051     0.004505
AU1374   AU        0.434234    0.002326    0.393645     0.007504
AU1375   AU        0.434273    0.036879    0.358176     0.007504
PT1376   PT        0.469088    0.001141    0.358612     0.004505
PT1377   PT        0.468557    0.040189    0.391265     0.004505
PT1378   PT        0.504338    0.002693    0.395111     0.004505
AU1379   AU        0.504828    0.040468    0.358333     0.007504
PT1380   PT        0.539769    0.039013    0.392121     0.004505
PT1381   PT        0.576051    0.040203    0.355365     0.004505
PT1382   PT        0.613756    0.041020    0.390615     0.004505
PT1383   PT        0.647026    0.040057    0.355494     0.004505
AU1384   AU        0.183496    0.116508    0.394509     0.007504
PT1385   PT        0.219581    0.079953    0.394571     0.004505
PT1386   PT        0.219051    0.115739    0.357532     0.004505
PT1387   PT        0.253885    0.077564    0.354450     0.004505
AU1388   AU        0.253937    0.114084    0.391764     0.007504
PT1389   PT        0.291225    0.076775    0.390810     0.004505
PT1390   PT        0.289153    0.115892    0.356344     0.004505
PT1391   PT        0.324317    0.077471    0.354149     0.004505
AU1392   AU        0.324826    0.113905    0.391517     0.007504
PT1393   PT        0.359791    0.076879    0.391989     0.004505
AU1394   AU        0.359869    0.113589    0.355978     0.007504
PT1395   PT        0.397110    0.077456    0.356637     0.004505
AU1396   AU        0.396207    0.112615    0.393473     0.007504
PT1397   PT        0.433054    0.076298    0.393828     0.004505
PT1398   PT        0.433575    0.114758    0.357801     0.004505
PT1399   PT        0.467966    0.075024    0.356341     0.004505
PT1400   PT        0.468697    0.112026    0.391945     0.004505
PT1401   PT        0.505814    0.076652    0.391956     0.004505
AU1402   AU        0.506121    0.113892    0.356584     0.007504
PT1403   PT        0.539440    0.076399    0.355332     0.004505
AU1404   AU        0.540792    0.114227    0.390054     0.007504
PT1405   PT        0.576187    0.076136    0.390818     0.004505
AU1406   AU        0.575782    0.113178    0.355597     0.007504
PT1407   PT        0.611545    0.076944    0.354006     0.004505
PT1408   PT        0.611764    0.113555    0.389984     0.004505
PT1409   PT        0.646819    0.077720    0.391103     0.004505
PT1410   PT        0.648141    0.114836    0.355292     0.004505
PT1411   PT        0.681251    0.077725    0.357122     0.004505
PT1412   PT        0.683392    0.117070    0.390961     0.004505
PT1413   PT        0.718266    0.079595    0.391286     0.004505
PT1414   PT        0.717104    0.115772    0.355602     0.004505
PT1415   PT        0.750793    0.116429    0.390015     0.004505
AU1416   AU        0.115182    0.195867    0.393443     0.007504
AU1417   AU        0.146969    0.155870    0.395275     0.007504
AU1418   AU        0.148774    0.193790    0.358912     0.007504
PT1419   PT        0.183330    0.154879    0.357917     0.004505
PT1420   PT        0.183414    0.190750    0.392875     0.004505
AU1421   AU        0.217774    0.152947    0.394032     0.007504
AU1422   AU        0.217172    0.189941    0.356330     0.007504
PT1423   PT        0.252464    0.152782    0.358390     0.004505
AU1424   AU        0.253479    0.189395    0.393569     0.007504
AU1425   AU        0.289298    0.152092    0.393516     0.007504
AU1426   AU        0.289042    0.190510    0.358274     0.007504
PT1427   PT        0.325788    0.151513    0.356855     0.004505
AU1428   AU        0.324478    0.191179    0.395980     0.007504
AU1429   AU        0.362290    0.150973    0.392887     0.007504
AU1430   AU        0.361117    0.189247    0.356793     0.007504
AU1431   AU        0.397197    0.152889    0.355489     0.007504
PT1432   PT        0.397022    0.191394    0.390865     0.004505
AU1433   AU        0.430612    0.152082    0.393062     0.007504
AU1434   AU        0.433000    0.190495    0.354842     0.007504
AU1435   AU        0.467535    0.152642    0.354260     0.007504
AU1436   AU        0.468715    0.189639    0.391937     0.007504
PT1437   PT        0.505156    0.151773    0.391721     0.004505
AU1438   AU        0.503881    0.190001    0.357977     0.007504
AU1439   AU        0.541715    0.150403    0.356375     0.007504
PT1440   PT        0.540925    0.191772    0.392513     0.004505
AU1441   AU        0.577474    0.151233    0.391819     0.007504
PT1442   PT        0.574853    0.192172    0.358063     0.004505
PT1443   PT        0.611806    0.152875    0.356270     0.004505
AU1444   AU        0.612142    0.191627    0.390308     0.007504
AU1445   AU        0.647840    0.152367    0.391486     0.007504
PT1446   PT        0.647526    0.191034    0.357658     0.004505
AU1447   AU        0.681787    0.153035    0.355660     0.007504
AU1448   AU        0.682773    0.189714    0.393434     0.007504
PT1449   PT        0.717353    0.154141    0.392372     0.004505
AU1450   AU        0.716290    0.191532    0.357424     0.007504
PT1451   PT        0.750326    0.157245    0.357520     0.004505
PT1452   PT        0.753511    0.191692    0.391724     0.004505
AU1453   AU        0.788467    0.153610    0.390367     0.007504
PT1454   PT        0.788362    0.190896    0.357945     0.004505
AU1455   AU        0.823774    0.191438    0.392348     0.007504
PT1456   PT        0.081721    0.272395    0.355874     0.004505
PT1457   PT        0.114650    0.232569    0.358832     0.004505
AU1458   AU        0.115463    0.269371    0.392792     0.007504
AU1459   AU        0.149910    0.230637    0.392839     0.007504
PT1460   PT        0.147322    0.270348    0.355609     0.004505
AU1461   AU        0.183804    0.228061    0.357150     0.007504
PT1462   PT        0.183713    0.267640    0.392844     0.004505
AU1463   AU        0.217835    0.227706    0.392804     0.007504
AU1464   AU        0.218905    0.269810    0.358230     0.007504
PT1465   PT        0.250777    0.227573    0.355317     0.004505
PT1466   PT        0.253733    0.265998    0.393588     0.004505
AU1467   AU        0.289254    0.228290    0.394067     0.007504
AU1468   AU        0.288868    0.267165    0.354860     0.007504
AU1469   AU        0.325476    0.226075    0.356962     0.007504
AU1470   AU        0.325530    0.268519    0.392533     0.007504
PT1471   PT        0.361557    0.229633    0.387975     0.004505
AU1472   AU        0.362168    0.268025    0.355578     0.007504
AU1473   AU        0.397751    0.228089    0.356310     0.007504
AU1474   AU        0.397736    0.266879    0.391414     0.007504
AU1475   AU        0.432529    0.226721    0.391976     0.007504
AU1476   AU        0.432755    0.268501    0.356501     0.007504
AU1477   AU        0.467683    0.230503    0.355041     0.007504
AU1478   AU        0.468477    0.266282    0.392286     0.007504
AU1479   AU        0.503067    0.228815    0.391699     0.007504
PT1480   PT        0.503946    0.269491    0.357305     0.004505
AU1481   AU        0.537991    0.229919    0.357541     0.007504
AU1482   AU        0.538673    0.265775    0.391958     0.007504
AU1483   AU        0.574519    0.230923    0.394438     0.007504
PT1484   PT        0.574193    0.266582    0.357676     0.004505
AU1485   AU        0.610651    0.231039    0.356337     0.007504
AU1486   AU        0.611555    0.269402    0.394455     0.007504
AU1487   AU        0.646161    0.232665    0.391815     0.007504
AU1488   AU        0.648528    0.268211    0.356679     0.007504
AU1489   AU        0.682293    0.229050    0.357817     0.007504
PT1490   PT        0.683869    0.266661    0.393529     0.004505
PT1491   PT        0.717223    0.229185    0.394070     0.004505
AU1492   AU        0.718672    0.267542    0.356741     0.007504
PT1493   PT        0.753493    0.229165    0.356181     0.004505
AU1494   AU        0.753891    0.267912    0.390698     0.007504
PT1495   PT        0.790956    0.231844    0.392869     0.004505
PT1496   PT        0.788569    0.270192    0.357376     0.004505
PT1497   PT        0.824078    0.231436    0.357369     0.004505
PT1498   PT        0.823723    0.270017    0.391996     0.004505
PT1499   PT        0.859297    0.268902    0.354596     0.004505
PT1500   PT        0.080438    0.307503    0.391824     0.004505
PT1501   PT        0.078449    0.346688    0.355943     0.004505
PT1502   PT        0.113884    0.309955    0.355545     0.004505
PT1503   PT        0.112277    0.346065    0.391101     0.004505
AU1504   AU        0.148552    0.308765    0.392522     0.007504
AU1505   AU        0.146572    0.347225    0.356973     0.007504
AU1506   AU        0.181983    0.309137    0.354972     0.007504
AU1507   AU        0.180285    0.347020    0.392589     0.007504
AU1508   AU        0.217305    0.308219    0.392099     0.007504
PT1509   PT        0.216877    0.346377    0.354291     0.004505
AU1510   AU        0.253259    0.308483    0.355725     0.007504
PT1511   PT        0.253879    0.344772    0.389671     0.004505
AU1512   AU        0.289466    0.307413    0.393716     0.007504
PT1513   PT        0.291214    0.343900    0.355678     0.004505
AU1514   AU        0.327008    0.306058    0.356406     0.007504
AU1515   AU        0.325931    0.344962    0.392759     0.007504
AU1516   AU        0.360529    0.307072    0.392289     0.007504
AU1517   AU        0.358238    0.346301    0.358069     0.007504
AU1518   AU        0.397804    0.307763    0.358205     0.007504
AU1519   AU        0.396293    0.345425    0.392048     0.007504
AU1520   AU        0.433199    0.306618    0.392640     0.007504
PT1521   PT        0.433719    0.343929    0.358402     0.004505
AU1522   AU        0.469600    0.306364    0.356898     0.007504
AU1523   AU        0.470602    0.345002    0.392750     0.007504
AU1524   AU        0.503892    0.307862    0.391936     0.007504
AU1525   AU        0.505007    0.346695    0.355380     0.007504
AU1526   AU        0.538178    0.307475    0.356225     0.007504
AU1527   AU        0.539594    0.344853    0.392764     0.007504
PT1528   PT        0.574266    0.304532    0.391166     0.004505
AU1529   AU        0.574470    0.344986    0.357453     0.007504
AU1530   AU        0.610361    0.305271    0.356085     0.007504
AU1531   AU        0.610360    0.345718    0.393886     0.007504
AU1532   AU        0.648254    0.306852    0.393510     0.007504
AU1533   AU        0.646949    0.346658    0.357927     0.007504
AU1534   AU        0.682284    0.307526    0.356207     0.007504
AU1535   AU        0.683677    0.347087    0.390870     0.007504
PT1536   PT        0.717946    0.305206    0.389968     0.004505
AU1537   AU        0.719362    0.343247    0.355680     0.007504
AU1538   AU        0.754691    0.305377    0.356301     0.007504
PT1539   PT        0.753972    0.344218    0.391145     0.004505
AU1540   AU        0.789839    0.306367    0.391820     0.007504
PT1541   PT        0.789682    0.342925    0.355448     0.004505
PT1542   PT        0.825253    0.306842    0.356021     0.004505
AU1543   AU        0.823796    0.345318    0.390307     0.007504
PT1544   PT        0.857804    0.304536    0.391488     0.004505
PT1545   PT        0.857350    0.344035    0.355181     0.004505
AU1546   AU        0.045049    0.422971    0.393661     0.007504
PT1547   PT        0.079063    0.385007    0.391386     0.004505
PT1548   PT        0.078596    0.425425    0.358759     0.004505
AU1549   AU        0.110920    0.384742    0.356614     0.007504
PT1550   PT        0.111105    0.423016    0.391998     0.004505
PT1551   PT        0.146277    0.385165    0.393159     0.004505
PT1552   PT        0.145669    0.423429    0.356365     0.004505
PT1553   PT        0.181924    0.385257    0.358070     0.004505
AU1554   AU        0.182165    0.421951    0.392955     0.007504
AU1555   AU        0.218278    0.383007    0.390924     0.007504
AU1556   AU        0.218683    0.423072    0.356697     0.007504
AU1557   AU        0.255557    0.383194    0.354547     0.007504
AU1558   AU        0.253933    0.422306    0.391245     0.007504
AU1559   AU        0.290732    0.383719    0.393110     0.007504
AU1560   AU        0.287523    0.424747    0.354916     0.007504
AU1561   AU        0.324040    0.385675    0.356143     0.007504
PT1562   PT        0.325134    0.422393    0.392851     0.004505
AU1563   AU        0.360585    0.385629    0.391428     0.007504
AU1564   AU        0.359497    0.422150    0.357094     0.007504
AU1565   AU        0.396540    0.384561    0.358116     0.007504
AU1566   AU        0.396518    0.425018    0.392189     0.007504
AU1567   AU        0.433164    0.383205    0.392769     0.007504
AU1568   AU        0.432986    0.422440    0.357728     0.007504
AU1569   AU        0.466378    0.383671    0.356765     0.007504
AU1570   AU        0.467155    0.422489    0.389974     0.007504
AU1571   AU        0.505940    0.383345    0.391808     0.007504
AU1572   AU        0.502946    0.421170    0.355976     0.007504
AU1573   AU        0.540893    0.383370    0.355605     0.007504
AU1574   AU        0.538922    0.423180    0.392551     0.007504
AU1575   AU        0.575081    0.386229    0.391591     0.007504
AU1576   AU        0.576515    0.421701    0.353482     0.007504
PT1577   PT        0.612087    0.383652    0.355882     0.004505
AU1578   AU        0.609856    0.422919    0.390880     0.007504
PT1579   PT        0.644685    0.384414    0.393097     0.004505
PT1580   PT        0.648218    0.421708    0.356890     0.004505
PT1581   PT        0.683584    0.384054    0.352703     0.004505
AU1582   AU        0.681461    0.420940    0.393825     0.007504
PT1583   PT        0.721302    0.386333    0.391482     0.004505
AU1584   AU        0.719150    0.419620    0.354151     0.007504
AU1585   AU        0.755180    0.384321    0.356283     0.007504
AU1586   AU        0.754443    0.424401    0.391547     0.007504
AU1587   AU        0.789773    0.382914    0.391647     0.007504
AU1588   AU        0.790327    0.422071    0.355105     0.007504
PT1589   PT        0.823465    0.383646    0.353634     0.004505
AU1590   AU        0.823844    0.420656    0.390703     0.007504
AU1591   AU        0.858332    0.382535    0.391598     0.007504
PT1592   PT        0.859266    0.422779    0.357566     0.004505
PT1593   PT        0.892756    0.423485    0.393959     0.004505
PT1594   PT        0.042465    0.460343    0.359147     0.004505
PT1595   PT        0.045086    0.501054    0.395456     0.004505
AU1596   AU        0.078212    0.461575    0.392058     0.007504
AU1597   AU        0.077859    0.500536    0.356753     0.007504
PT1598   PT        0.111737    0.461596    0.354797     0.004505
PT1599   PT        0.112620    0.499347    0.391743     0.004505
PT1600   PT        0.146603    0.461768    0.389713     0.004505
AU1601   AU        0.146225    0.500274    0.355312     0.007504
PT1602   PT        0.179705    0.462530    0.354247     0.004505
PT1603   PT        0.182348    0.497873    0.390728     0.004505
AU1604   AU        0.218270    0.462372    0.390806     0.007504
PT1605   PT        0.217408    0.500924    0.354906     0.004505
PT1606   PT        0.252832    0.463604    0.356616     0.004505
AU1607   AU        0.253308    0.502747    0.392767     0.007504
PT1608   PT        0.290525    0.462866    0.393052     0.004505
AU1609   AU        0.288383    0.501014    0.355383     0.007504
AU1610   AU        0.327331    0.460470    0.356625     0.007504
AU1611   AU        0.323404    0.501955    0.391704     0.007504
AU1612   AU        0.360761    0.463565    0.392737     0.007504
AU1613   AU        0.360872    0.501042    0.358150     0.007504
PT1614   PT        0.396472    0.461178    0.357187     0.004505
AU1615   AU        0.395936    0.500654    0.391865     0.007504
AU1616   AU        0.433727    0.464194    0.393329     0.007504
AU1617   AU        0.432901    0.499333    0.356095     0.007504
AU1618   AU        0.467191    0.461446    0.355959     0.007504
AU1619   AU        0.468467    0.502920    0.390013     0.007504
AU1620   AU        0.501955    0.461076    0.389557     0.007504
AU1621   AU        0.504469    0.500467    0.356761     0.007504
AU1622   AU        0.540693    0.459017    0.357105     0.007504
AU1623   AU        0.540101    0.496830    0.392670     0.007504
AU1624   AU        0.576022    0.459829    0.391518     0.007504
AU1625   AU        0.573327    0.502699    0.354883     0.007504
AU1626   AU        0.610473    0.460487    0.353218     0.007504
AU1627   AU        0.608834    0.495998    0.388744     0.007504
PT1628   PT        0.645019    0.462291    0.394606     0.004505
AU1629   AU        0.645640    0.496642    0.355069     0.007504
PT1630   PT        0.686390    0.460495    0.353527     0.004505
AU1631   AU        0.683427    0.503197    0.389620     0.007504
AU1632   AU        0.717208    0.460959    0.393467     0.007504
AU1633   AU        0.718950    0.499489    0.355649     0.007504
AU1634   AU        0.754253    0.462115    0.355554     0.007504
AU1635   AU        0.754885    0.501027    0.391118     0.007504
AU1636   AU        0.791323    0.458548    0.391988     0.007504
AU1637   AU        0.790274    0.498933    0.357353     0.007504
PT1638   PT        0.823245    0.461445    0.357227     0.004505
PT1639   PT        0.824323    0.501570    0.392092     0.004505
PT1640   PT        0.857930    0.459984    0.392639     0.004505
PT1641   PT        0.857712    0.499589    0.356143     0.004505
PT1642   PT        0.890815    0.460944    0.357704     0.004505
AU1643   AU        0.892516    0.499052    0.390714     0.007504
PT1644   PT        0.078065    0.538924    0.391165     0.004505
PT1645   PT        0.078618    0.577912    0.356944     0.004505
PT1646   PT        0.110928    0.539684    0.355651     0.004505
AU1647   AU        0.111593    0.577912    0.391341     0.007504
PT1648   PT        0.145278    0.540823    0.390706     0.004505
PT1649   PT        0.145220    0.578776    0.354209     0.004505
AU1650   AU        0.180923    0.538476    0.355339     0.007504
AU1651   AU        0.178970    0.578372    0.390900     0.007504
AU1652   AU        0.217011    0.540193    0.391507     0.007504
AU1653   AU        0.214711    0.580113    0.355816     0.007504
AU1654   AU        0.254385    0.538450    0.354151     0.007504
PT1655   PT        0.252511    0.580063    0.391555     0.004505
PT1656   PT        0.287523    0.540907    0.391934     0.004505
AU1657   AU        0.288948    0.577747    0.354192     0.007504
AU1658   AU        0.326324    0.538843    0.355179     0.007504
AU1659   AU        0.323827    0.579263    0.389929     0.007504
AU1660   AU        0.359330    0.539440    0.390820     0.007504
PT1661   PT        0.360766    0.580906    0.357032     0.004505
AU1662   AU        0.396815    0.538406    0.356717     0.007504
AU1663   AU        0.396092    0.578847    0.391064     0.007504
AU1664   AU        0.432050    0.539733    0.392804     0.007504
AU1665   AU        0.432312    0.579355    0.355639     0.007504
AU1666   AU        0.469523    0.539403    0.354991     0.007504
AU1667   AU        0.467342    0.577443    0.391630     0.007504
AU1668   AU        0.504454    0.539714    0.391751     0.007504
AU1669   AU        0.503621    0.578570    0.355441     0.007504
AU1670   AU        0.539556    0.538911    0.353268     0.007504
AU1671   AU        0.537168    0.577575    0.390123     0.007504
PT1672   PT        0.572102    0.536508    0.390815     0.004505
PT1673   PT        0.572509    0.576462    0.355331     0.004505
PT1674   PT        0.613321    0.537034    0.352643     0.004505
PT1675   PT        0.613654    0.579191    0.394886     0.004505
PT1676   PT        0.650280    0.541337    0.394932     0.004505
AU1677   AU        0.646556    0.579816    0.356611     0.007504
AU1678   AU        0.685515    0.540152    0.355313     0.007504
AU1679   AU        0.683456    0.579429    0.391386     0.007504
AU1680   AU        0.719139    0.542098    0.391333     0.007504
PT1681   PT        0.720625    0.578443    0.355131     0.004505
PT1682   PT        0.752733    0.540368    0.358026     0.004505
AU1683   AU        0.756453    0.578118    0.391365     0.007504
AU1684   AU        0.790217    0.539658    0.391200     0.007504
AU1685   AU        0.790403    0.579710    0.355429     0.007504
AU1686   AU        0.824678    0.541463    0.353769     0.007504
AU1687   AU        0.824203    0.578257    0.390259     0.007504
PT1688   PT        0.857801    0.536306    0.390650     0.004505
PT1689   PT        0.858595    0.579226    0.355361     0.004505
PT1690   PT        0.079709    0.615257    0.393315     0.004505
PT1691   PT        0.000714    0.654532    0.353320     0.004505
PT1692   PT        0.111772    0.614644    0.357403     0.004505
PT1693   PT        0.110584    0.654956    0.392655     0.004505
PT1694   PT        0.146532    0.616523    0.390451     0.004505
AU1695   AU        0.145385    0.652771    0.354631     0.007504
AU1696   AU        0.180222    0.616731    0.355443     0.007504
PT1697   PT        0.182570    0.655556    0.392330     0.004505
AU1698   AU        0.213952    0.616214    0.390620     0.007504
AU1699   AU        0.216903    0.654892    0.357201     0.007504
PT1700   PT        0.251518    0.617030    0.357340     0.004505
AU1701   AU        0.254078    0.656195    0.392930     0.007504
AU1702   AU        0.290644    0.616631    0.391297     0.007504
AU1703   AU        0.289540    0.656139    0.356537     0.007504
AU1704   AU        0.324348    0.616290    0.354677     0.007504
AU1705   AU        0.324600    0.654966    0.393137     0.007504
AU1706   AU        0.360419    0.619077    0.393054     0.007504
AU1707   AU        0.360496    0.655937    0.354750     0.007504
PT1708   PT        0.395889    0.618203    0.356537     0.004505
AU1709   AU        0.397389    0.656171    0.393410     0.007504
AU1710   AU        0.432052    0.615479    0.391157     0.007504
AU1711   AU        0.432229    0.655158    0.355204     0.007504
AU1712   AU        0.467753    0.616592    0.356763     0.007504
AU1713   AU        0.468969    0.654121    0.391254     0.007504
PT1714   PT        0.504391    0.615871    0.391053     0.004505
AU1715   AU        0.503174    0.656968    0.354307     0.007504
AU1716   AU        0.539072    0.618594    0.355965     0.007504
AU1717   AU        0.538005    0.654933    0.390772     0.007504
AU1718   AU        0.574496    0.618002    0.390063     0.007504
AU1719   AU        0.576054    0.656201    0.353707     0.007504
PT1720   PT        0.609072    0.617331    0.353513     0.004505
AU1721   AU        0.609725    0.655648    0.389930     0.007504
AU1722   AU        0.647453    0.618592    0.390641     0.007504
AU1723   AU        0.645798    0.654456    0.355281     0.007504
PT1724   PT        0.681664    0.615332    0.354941     0.004505
AU1725   AU        0.684776    0.654991    0.389935     0.007504
AU1726   AU        0.718854    0.612988    0.390062     0.007504
PT1727   PT        0.719287    0.655365    0.353610     0.004505
PT1728   PT        0.755717    0.618042    0.356816     0.004505
PT1729   PT        0.754630    0.653112    0.392494     0.004505
AU1730   AU        0.790712    0.616972    0.391929     0.007504
AU1731   AU        0.788693    0.654957    0.354960     0.007504
AU1732   AU        0.825087    0.617550    0.353240     0.007504
AU1733   AU        0.823811    0.655503    0.391064     0.007504
PT1734   PT        0.857811    0.616059    0.390804     0.004505
PT1735   PT        0.859564    0.653491    0.354823     0.004505
PT1736   PT        0.112386    0.692110    0.357705     0.004505
PT1737   PT        0.112414    0.729578    0.393922     0.004505
AU1738   AU        0.145925    0.692575    0.391848     0.007504
PT1739   PT        0.146760    0.730399    0.356628     0.004505
PT1740   PT        0.182589    0.692826    0.356879     0.004505
PT1741   PT        0.181949    0.731418    0.393214     0.004505
PT1742   PT        0.217492    0.693270    0.391783     0.004505
AU1743   AU        0.216983    0.732308    0.356586     0.007504
AU1744   AU        0.252555    0.693582    0.357562     0.007504
AU1745   AU        0.251698    0.731150    0.391873     0.007504
AU1746   AU        0.288775    0.695485    0.393062     0.007504
PT1747   PT        0.288355    0.733312    0.359154     0.004505
AU1748   AU        0.325251    0.695032    0.358776     0.007504
PT1749   PT        0.322359    0.732301    0.393650     0.004505
AU1750   AU        0.360339    0.693898    0.393758     0.007504
PT1751   PT        0.360511    0.733013    0.357712     0.004505
AU1752   AU        0.396691    0.693566    0.357029     0.007504
AU1753   AU        0.396861    0.730401    0.391667     0.007504
AU1754   AU        0.432837    0.691039    0.391235     0.007504
AU1755   AU        0.432370    0.730700    0.355351     0.007504
AU1756   AU        0.468742    0.693761    0.356238     0.007504
AU1757   AU        0.466380    0.731509    0.393145     0.007504
AU1758   AU        0.504570    0.692045    0.392856     0.007504
AU1759   AU        0.504341    0.730325    0.355376     0.007504
AU1760   AU        0.541438    0.694013    0.354383     0.007504
AU1761   AU        0.539467    0.730638    0.390633     0.007504
AU1762   AU        0.575780    0.693621    0.391225     0.007504
AU1763   AU        0.576979    0.733038    0.354235     0.007504
AU1764   AU        0.610380    0.695044    0.354072     0.007504
AU1765   AU        0.611216    0.731942    0.391471     0.007504
AU1766   AU        0.647628    0.693494    0.391440     0.007504
AU1767   AU        0.646366    0.732579    0.354831     0.007504
AU1768   AU        0.682233    0.692905    0.353697     0.007504
AU1769   AU        0.682741    0.732719    0.391062     0.007504
PT1770   PT        0.718907    0.695356    0.392416     0.004505
AU1771   AU        0.718936    0.732528    0.357788     0.007504
PT1772   PT        0.754002    0.695116    0.356933     0.004505
PT1773   PT        0.753190    0.733014    0.392947     0.004505
PT1774   PT        0.789825    0.692678    0.391975     0.004505
AU1775   AU        0.789188    0.730936    0.358071     0.007504
PT1776   PT        0.823560    0.690997    0.357072     0.004505
AU1777   AU        0.822586    0.733533    0.390961     0.007504
PT1778   PT        0.147052    0.768163    0.391146     0.004505
PT1779   PT        0.182403    0.769341    0.357658     0.004505
PT1780   PT        0.181866    0.806801    0.390715     0.004505
PT1781   PT        0.218034    0.769880    0.393599     0.004505
PT1782   PT        0.217717    0.806420    0.357200     0.004505
PT1783   PT        0.251710    0.769082    0.357770     0.004505
AU1784   AU        0.252679    0.807483    0.391866     0.007504
AU1785   AU        0.286923    0.770710    0.392551     0.007504
PT1786   PT        0.288414    0.807839    0.356481     0.004505
PT1787   PT        0.324126    0.770198    0.355926     0.004505
AU1788   AU        0.322620    0.807703    0.390466     0.007504
AU1789   AU        0.359172    0.772528    0.391937     0.007504
PT1790   PT        0.360809    0.808618    0.356420     0.004505
AU1791   AU        0.396416    0.771955    0.356815     0.007504
PT1792   PT        0.395252    0.808541    0.392129     0.004505
PT1793   PT        0.432037    0.769504    0.390546     0.004505
PT1794   PT        0.432557    0.808424    0.355958     0.004505
AU1795   AU        0.468603    0.769084    0.354452     0.007504
PT1796   PT        0.469343    0.810095    0.390245     0.004505
AU1797   AU        0.503207    0.771480    0.390992     0.007504
PT1798   PT        0.503068    0.809848    0.354105     0.004505
AU1799   AU        0.539503    0.769947    0.354808     0.007504
AU1800   AU        0.539824    0.809848    0.389687     0.007504
PT1801   PT        0.574967    0.771507    0.389442     0.004505
AU1802   AU        0.575143    0.807658    0.354759     0.007504
AU1803   AU        0.611300    0.771377    0.355386     0.007504
AU1804   AU        0.611975    0.808261    0.391294     0.007504
AU1805   AU        0.648219    0.769908    0.390608     0.007504
PT1806   PT        0.646430    0.808277    0.356522     0.004505
PT1807   PT        0.684328    0.769762    0.355050     0.004505
PT1808   PT        0.681212    0.806723    0.391724     0.004505
AU1809   AU        0.718575    0.770885    0.392969     0.007504
PT1810   PT        0.718030    0.807138    0.355306     0.004505
PT1811   PT        0.752045    0.768713    0.357249     0.004505
AU1812   AU        0.752621    0.806905    0.391192     0.007504
AU1813   AU        0.787732    0.769528    0.391912     0.007504
AU1814   AU        0.218686    0.844919    0.392493     0.007504
PT1815   PT        0.253477    0.845374    0.358585     0.004505
PT1816   PT        0.288596    0.845125    0.391300     0.004505
PT1817   PT        0.288346    0.881186    0.357423     0.004505
AU1818   AU        0.323990    0.845417    0.355904     0.007504
AU1819   AU        0.322547    0.880392    0.391608     0.007504
PT1820   PT        0.361314    0.846118    0.392506     0.004505
AU1821   AU        0.358674    0.881381    0.356753     0.007504
AU1822   AU        0.396120    0.846459    0.356956     0.007504
AU1823   AU        0.397446    0.884274    0.392712     0.007504
PT1824   PT        0.433714    0.846633    0.390887     0.004505
AU1825   AU        0.431817    0.883393    0.357593     0.007504
PT1826   PT        0.468369    0.847400    0.354688     0.004505
AU1827   AU        0.467503    0.882652    0.390541     0.007504
PT1828   PT        0.504780    0.845881    0.391012     0.004505
PT1829   PT        0.504363    0.883139    0.353800     0.004505
PT1830   PT        0.539165    0.845092    0.353856     0.004505
PT1831   PT        0.540277    0.881758    0.392802     0.004505
AU1832   AU        0.578163    0.845969    0.393154     0.007504
PT1833   PT        0.574486    0.881676    0.355984     0.004505
PT1834   PT        0.611680    0.846187    0.355909     0.004505
AU1835   AU        0.611541    0.882996    0.389076     0.007504
PT1836   PT        0.646107    0.845469    0.391498     0.004505
AU1837   AU        0.647007    0.882960    0.356437     0.007504
PT1838   PT        0.681283    0.843579    0.357504     0.004505
PT1839   PT        0.715151    0.844277    0.392050     0.004505
PT1840   PT        0.431692    0.920050    0.392931     0.004505
PT1841   PT        0.467843    0.920482    0.356592     0.004505
PT1842   PT        0.503510    0.919216    0.391309     0.004505
AU1843   AU        0.287671    0.040639    0.427683     0.007504
PT1844   PT        0.322771    0.041313    0.462025     0.004505
AU1845   AU        0.361746    0.039789    0.427536     0.007504
PT1846   PT        0.397995    0.001525    0.427620     0.004505
PT1847   PT        0.396927    0.040406    0.464864     0.004505
PT1848   PT        0.432655    0.002471    0.463640     0.004505
AU1849   AU        0.433460    0.037909    0.430094     0.007504
PT1850   PT        0.468743    0.002386    0.428758     0.004505
PT1851   PT        0.469199    0.037480    0.463068     0.004505
AU1852   AU        0.503951    0.000769    0.463161     0.007504
PT1853   PT        0.502976    0.038521    0.428032     0.004505
PT1854   PT        0.539953    0.002411    0.428352     0.004505
PT1855   PT        0.541336    0.039489    0.464260     0.004505
AU1856   AU        0.576709    0.038592    0.427076     0.007504
PT1857   PT        0.611695    0.042353    0.462554     0.004505
AU1858   AU        0.647620    0.043375    0.428548     0.007504
PT1859   PT        0.184736    0.116604    0.464905     0.004505
PT1860   PT        0.217769    0.078187    0.465451     0.004505
PT1861   PT        0.218369    0.115658    0.428543     0.004505
PT1862   PT        0.252240    0.078923    0.429358     0.004505
AU1863   AU        0.254963    0.114950    0.464333     0.007504
PT1864   PT        0.288505    0.077561    0.464251     0.004505
AU1865   AU        0.290026    0.113341    0.425125     0.007504
PT1866   PT        0.325136    0.077343    0.430449     0.004505
PT1867   PT        0.325213    0.114785    0.463354     0.004505
AU1868   AU        0.361702    0.076567    0.463887     0.007504
PT1869   PT        0.360100    0.112540    0.427127     0.004505
PT1870   PT        0.396575    0.075667    0.427449     0.004505
PT1871   PT        0.395441    0.113227    0.462057     0.004505
AU1872   AU        0.431659    0.076358    0.464587     0.007504
PT1873   PT        0.431938    0.113142    0.428851     0.004505
PT1874   PT        0.468235    0.075349    0.427451     0.004505
PT1875   PT        0.467108    0.114584    0.463445     0.004505
PT1876   PT        0.504405    0.076697    0.465518     0.004505
AU1877   AU        0.503987    0.113066    0.430106     0.007504
AU1878   AU        0.538597    0.075965    0.428535     0.007504
PT1879   PT        0.540363    0.113715    0.466184     0.004505
AU1880   AU        0.575567    0.076410    0.464494     0.007504
PT1881   PT        0.575096    0.114898    0.427702     0.004505
PT1882   PT        0.611249    0.076786    0.427284     0.004505
PT1883   PT        0.612056    0.114599    0.463183     0.004505
PT1884   PT        0.645731    0.079326    0.463495     0.004505
PT1885   PT        0.646832    0.114981    0.426461     0.004505
AU1886   AU        0.681910    0.078710    0.426177     0.007504
AU1887   AU        0.682338    0.115890    0.464441     0.007504
PT1888   PT        0.719940    0.078628    0.461532     0.004505
AU1889   AU        0.718424    0.116623    0.426826     0.007504
AU1890   AU        0.752041    0.115656    0.462253     0.007504
PT1891   PT        0.114001    0.195114    0.461944     0.004505
AU1892   AU        0.148426    0.155496    0.462472     0.007504
AU1893   AU        0.149328    0.193504    0.428142     0.007504
PT1894   PT        0.184946    0.152198    0.430197     0.004505
AU1895   AU        0.183492    0.191401    0.463290     0.007504
PT1896   PT        0.219448    0.153617    0.464465     0.004505
PT1897   PT        0.218515    0.188789    0.429142     0.004505
AU1898   AU        0.253303    0.150812    0.429372     0.007504
AU1899   AU        0.253370    0.189695    0.465031     0.007504
AU1900   AU        0.288747    0.151739    0.464530     0.007504
AU1901   AU        0.289722    0.188312    0.429500     0.007504
PT1902   PT        0.325677    0.149445    0.426162     0.004505
AU1903   AU        0.324882    0.186936    0.464040     0.007504
AU1904   AU        0.361729    0.150411    0.465364     0.007504
AU1905   AU        0.362222    0.188294    0.429523     0.007504
PT1906   PT        0.395387    0.150643    0.428858     0.004505
PT1907   PT        0.396478    0.190317    0.465501     0.004505
AU1908   AU        0.432290    0.150464    0.463019     0.007504
PT1909   PT        0.434044    0.190830    0.429105     0.004505
PT1910   PT        0.467660    0.151750    0.425403     0.004505
AU1911   AU        0.467872    0.188661    0.463609     0.007504
AU1912   AU        0.503352    0.152432    0.465838     0.007504
PT1913   PT        0.504453    0.189655    0.429337     0.004505
AU1914   AU        0.540264    0.151266    0.426851     0.007504
AU1915   AU        0.538791    0.191354    0.464018     0.007504
AU1916   AU        0.575352    0.152540    0.462863     0.007504
AU1917   AU        0.573595    0.190089    0.426943     0.007504
AU1918   AU        0.611932    0.151728    0.427838     0.007504
AU1919   AU        0.611810    0.190337    0.465029     0.007504
AU1920   AU        0.647869    0.151747    0.464601     0.007504
PT1921   PT        0.646539    0.188583    0.428997     0.004505
PT1922   PT        0.682903    0.152016    0.427371     0.004505
AU1923   AU        0.682528    0.190041    0.463309     0.007504
AU1924   AU        0.718143    0.153419    0.464062     0.007504
AU1925   AU        0.717850    0.190857    0.427560     0.007504
AU1926   AU        0.753360    0.152850    0.426663     0.007504
PT1927   PT        0.754804    0.192374    0.461328     0.004505
PT1928   PT        0.786973    0.153360    0.462910     0.004505
AU1929   AU        0.790138    0.193228    0.426434     0.007504
PT1930   PT        0.820906    0.192320    0.461387     0.004505
PT1931   PT        0.082948    0.270434    0.428130     0.004505
AU1932   AU        0.117049    0.233228    0.427917     0.007504
PT1933   PT        0.113960    0.269760    0.465584     0.004505
PT1934   PT        0.149390    0.231424    0.463042     0.004505
AU1935   AU        0.149100    0.270848    0.427392     0.007504
AU1936   AU        0.182866    0.230461    0.428411     0.007504
PT1937   PT        0.183585    0.267436    0.465651     0.004505
PT1938   PT        0.218507    0.228905    0.464245     0.004505
AU1939   AU        0.216954    0.268058    0.429512     0.007504
AU1940   AU        0.254637    0.226571    0.429161     0.007504
AU1941   AU        0.254887    0.266883    0.464152     0.007504
AU1942   AU        0.288906    0.226787    0.465597     0.007504
AU1943   AU        0.289072    0.268267    0.428491     0.007504
AU1944   AU        0.323754    0.229340    0.430792     0.007504
AU1945   AU        0.324327    0.268101    0.466156     0.007504
AU1946   AU        0.360715    0.226708    0.464612     0.007504
AU1947   AU        0.363321    0.266274    0.426190     0.007504
AU1948   AU        0.398671    0.227779    0.429135     0.007504
AU1949   AU        0.397519    0.263363    0.465320     0.007504
AU1950   AU        0.434871    0.229447    0.463967     0.007504
AU1951   AU        0.432932    0.267469    0.426913     0.007504
AU1952   AU        0.467981    0.228532    0.429869     0.007504
AU1953   AU        0.467453    0.267054    0.466184     0.007504
AU1954   AU        0.503221    0.227576    0.463569     0.007504
PT1955   PT        0.503928    0.267066    0.426539     0.004505
AU1956   AU        0.539203    0.229327    0.427784     0.007504
PT1957   PT        0.537778    0.269043    0.462590     0.004505
AU1958   AU        0.575904    0.227580    0.462634     0.007504
AU1959   AU        0.574743    0.267682    0.427607     0.007504
AU1960   AU        0.612304    0.230280    0.427476     0.007504
AU1961   AU        0.610188    0.267630    0.462490     0.007504
AU1962   AU        0.646482    0.227668    0.464971     0.007504
AU1963   AU        0.648402    0.270707    0.428099     0.007504
AU1964   AU        0.681309    0.229602    0.428179     0.007504
PT1965   PT        0.683250    0.266282    0.463854     0.004505
PT1966   PT        0.717945    0.228302    0.463364     0.004505
PT1967   PT        0.716553    0.266488    0.428505     0.004505
PT1968   PT        0.753872    0.229185    0.426638     0.004505
AU1969   AU        0.753845    0.269016    0.463765     0.007504
AU1970   AU        0.788587    0.229016    0.461584     0.007504
PT1971   PT        0.789419    0.268507    0.426649     0.004505
PT1972   PT        0.823291    0.231288    0.427312     0.004505
PT1973   PT        0.824903    0.268986    0.462423     0.004505
AU1974   AU        0.859515    0.267260    0.427402     0.007504
PT1975   PT        0.080158    0.306281    0.464395     0.004505
AU1976   AU        0.080534    0.344734    0.427238     0.007504
AU1977   AU        0.114051    0.307404    0.428052     0.007504
AU1978   AU        0.112274    0.344324    0.465245     0.007504
PT1979   PT        0.148958    0.305381    0.463234     0.004505
PT1980   PT        0.147223    0.346409    0.428886     0.004505
PT1981   PT        0.183730    0.307703    0.427943     0.004505
PT1982   PT        0.183239    0.345742    0.462930     0.004505
AU1983   AU        0.219370    0.307012    0.463766     0.007504
PT1984   PT        0.216555    0.347621    0.426155     0.004505
AU1985   AU        0.252487    0.309311    0.427805     0.007504
AU1986   AU        0.255376    0.343673    0.462755     0.007504
PT1987   PT        0.289046    0.307825    0.462932     0.004505
AU1988   AU        0.290837    0.344550    0.428137     0.007504
PT1989   PT        0.326421    0.307673    0.427509     0.004505
AU1990   AU        0.325725    0.344637    0.462780     0.007504
PT1991   PT        0.362779    0.305025    0.464014     0.004505
AU1992   AU        0.360603    0.344335    0.429279     0.007504
AU1993   AU        0.397889    0.308873    0.426358     0.007504
AU1994   AU        0.396589    0.344433    0.462820     0.007504
AU1995   AU        0.431060    0.305561    0.463167     0.007504
AU1996   AU        0.433397    0.346430    0.427528     0.007504
PT1997   PT        0.467338    0.305957    0.426908     0.004505
AU1998   AU        0.467148    0.344671    0.463492     0.007504
PT1999   PT        0.503534    0.307218    0.461625     0.004505
AU2000   AU        0.505606    0.343911    0.427133     0.007504
PT2001   PT        0.541756    0.305880    0.427438     0.004505
PT2002   PT        0.543250    0.343319    0.462787     0.004505
AU2003   AU        0.576489    0.306032    0.462864     0.007504
AU2004   AU        0.575587    0.346568    0.427728     0.007504
AU2005   AU        0.610209    0.307554    0.428901     0.007504
PT2006   PT        0.609509    0.345143    0.462649     0.004505
AU2007   AU        0.647537    0.307836    0.463730     0.007504
PT2008   PT        0.646633    0.346168    0.427644     0.004505
PT2009   PT        0.683847    0.309567    0.424905     0.004505
AU2010   AU        0.680697    0.346784    0.464697     0.007504
AU2011   AU        0.718403    0.306012    0.461056     0.007504
PT2012   PT        0.719406    0.346306    0.427373     0.004505
PT2013   PT        0.753990    0.304550    0.426545     0.004505
PT2014   PT        0.754668    0.343796    0.462399     0.004505
AU2015   AU        0.790703    0.306034    0.461958     0.007504
AU2016   AU        0.789432    0.344276    0.427807     0.007504
PT2017   PT        0.824035    0.305296    0.426037     0.004505
AU2018   AU        0.824392    0.344449    0.463006     0.007504
AU2019   AU        0.856964    0.307406    0.463666     0.007504
PT2020   PT        0.859572    0.344980    0.429501     0.004505
AU2021   AU        0.046922    0.384540    0.428501     0.007504
PT2022   PT        0.048490    0.423451    0.463124     0.004505
AU2023   AU        0.079800    0.385487    0.464378     0.007504
PT2024   PT        0.079767    0.423904    0.427783     0.004505
AU2025   AU        0.113253    0.384388    0.427282     0.007504
PT2026   PT        0.113609    0.423084    0.463849     0.004505
AU2027   AU        0.145667    0.384261    0.463879     0.007504
AU2028   AU        0.146734    0.421602    0.428666     0.007504
PT2029   PT        0.180230    0.383528    0.428080     0.004505
PT2030   PT        0.180860    0.423948    0.463675     0.004505
AU2031   AU        0.216998    0.386164    0.463759     0.007504
AU2032   AU        0.216685    0.423771    0.428247     0.007504
PT2033   PT        0.251830    0.384759    0.428043     0.004505
AU2034   AU        0.253280    0.421348    0.463916     0.007504
AU2035   AU        0.291753    0.384412    0.464209     0.007504
AU2036   AU        0.290437    0.422318    0.428065     0.007504
AU2037   AU        0.325036    0.382697    0.427018     0.007504
AU2038   AU        0.325122    0.423377    0.463315     0.007504
AU2039   AU        0.359496    0.385157    0.462523     0.007504
AU2040   AU        0.359353    0.424695    0.428315     0.007504
AU2041   AU        0.395995    0.383952    0.427136     0.007504
AU2042   AU        0.397627    0.423137    0.462101     0.007504
AU2043   AU        0.433852    0.384245    0.462264     0.007504
PT2044   PT        0.433485    0.423438    0.428193     0.004505
PT2045   PT        0.467563    0.383622    0.425044     0.004505
AU2046   AU        0.469345    0.421278    0.461757     0.007504
AU2047   AU        0.504629    0.379741    0.462545     0.007504
AU2048   AU        0.504554    0.421464    0.427376     0.007504
AU2049   AU        0.539441    0.382913    0.428127     0.007504
AU2050   AU        0.538662    0.421562    0.463886     0.007504
AU2051   AU        0.573766    0.385533    0.463039     0.007504
AU2052   AU        0.574462    0.422564    0.426263     0.007504
AU2053   AU        0.610273    0.385578    0.429406     0.007504
AU2054   AU        0.611009    0.422984    0.464686     0.007504
AU2055   AU        0.645404    0.384984    0.464756     0.007504
AU2056   AU        0.646106    0.421727    0.428840     0.007504
PT2057   PT        0.684722    0.382712    0.428892     0.004505
AU2058   AU        0.682647    0.419871    0.462794     0.007504
AU2059   AU        0.720943    0.383397    0.463852     0.007504
PT2060   PT        0.720088    0.420882    0.426937     0.004505
PT2061   PT        0.756088    0.383049    0.426519     0.004505
AU2062   AU        0.755448    0.422723    0.462362     0.007504
AU2063   AU        0.788571    0.380572    0.463838     0.007504
AU2064   AU        0.790879    0.422033    0.426181     0.007504
AU2065   AU        0.824671    0.383393    0.426633     0.007504
PT2066   PT        0.823212    0.421301    0.462504     0.004505
PT2067   PT        0.856235    0.385266    0.463369     0.004505
PT2068   PT        0.858448    0.421054    0.426199     0.004505
AU2069   AU        0.890569    0.385096    0.428138     0.007504
AU2070   AU        0.893089    0.423500    0.460558     0.007504
PT2071   PT        0.046388    0.462368    0.428773     0.004505
PT2072   PT        0.047690    0.499310    0.462374     0.004505
AU2073   AU        0.080871    0.461529    0.461418     0.007504
PT2074   PT        0.079249    0.501178    0.427515     0.004505
PT2075   PT        0.113223    0.461776    0.425402     0.004505
AU2076   AU        0.112975    0.501510    0.462479     0.007504
PT2077   PT        0.147222    0.462749    0.464426     0.004505
AU2078   AU        0.147880    0.500761    0.426133     0.007504
AU2079   AU        0.182424    0.461752    0.427995     0.007504
PT2080   PT        0.180667    0.502053    0.462175     0.004505
AU2081   AU        0.218179    0.462879    0.464796     0.007504
PT2082   PT        0.217981    0.501330    0.424945     0.004505
AU2083   AU        0.250636    0.460468    0.427512     0.007504
PT2084   PT        0.251117    0.501038    0.466377     0.004505
PT2085   PT        0.286051    0.462672    0.462004     0.004505
AU2086   AU        0.289291    0.500837    0.427478     0.007504
PT2087   PT        0.326346    0.462686    0.428662     0.004505
AU2088   AU        0.324104    0.500124    0.462888     0.007504
AU2089   AU        0.360110    0.462310    0.464712     0.007504
AU2090   AU        0.358810    0.501327    0.425744     0.007504
AU2091   AU        0.397281    0.463649    0.426550     0.007504
AU2092   AU        0.394797    0.500381    0.461796     0.007504
AU2093   AU        0.431268    0.461672    0.464101     0.007504
AU2094   AU        0.432904    0.502435    0.427304     0.007504
AU2095   AU        0.467538    0.461306    0.429186     0.007504
AU2096   AU        0.466766    0.500807    0.463229     0.007504
AU2097   AU        0.503765    0.460253    0.462562     0.007504
AU2098   AU        0.502674    0.499489    0.427805     0.007504
AU2099   AU        0.542458    0.462775    0.429646     0.007504
PT2100   PT        0.537662    0.501786    0.463622     0.004505
AU2101   AU        0.575959    0.461464    0.465438     0.007504
AU2102   AU        0.575692    0.500082    0.428133     0.007504
AU2103   AU        0.610464    0.458665    0.427446     0.007504
AU2104   AU        0.609427    0.499416    0.464298     0.007504
PT2105   PT        0.646201    0.461133    0.464888     0.004505
AU2106   AU        0.650681    0.501651    0.429433     0.007504
PT2107   PT        0.682828    0.459269    0.429933     0.004505
AU2108   AU        0.683398    0.502351    0.466145     0.007504
PT2109   PT        0.719836    0.461799    0.461852     0.004505
AU2110   AU        0.719869    0.498691    0.426853     0.007504
AU2111   AU        0.753258    0.460917    0.426008     0.007504
AU2112   AU        0.754166    0.500308    0.463651     0.007504
AU2113   AU        0.789960    0.461217    0.462067     0.007504
AU2114   AU        0.788614    0.501379    0.428476     0.007504
AU2115   AU        0.824870    0.463269    0.427525     0.007504
PT2116   PT        0.822593    0.501434    0.462872     0.004505
PT2117   PT        0.857389    0.460041    0.461519     0.004505
AU2118   AU        0.858953    0.499220    0.427471     0.007504
PT2119   PT        0.890972    0.462091    0.428495     0.004505
PT2120   PT        0.889586    0.498627    0.463830     0.004505
PT2121   PT        0.046375    0.539036    0.427574     0.004505
PT2122   PT        0.079665    0.539028    0.462482     0.004505
PT2123   PT        0.079577    0.576580    0.428395     0.004505
PT2124   PT        0.113212    0.537057    0.426176     0.004505
PT2125   PT        0.110781    0.580174    0.465323     0.004505
AU2126   AU        0.147071    0.539986    0.464164     0.007504
PT2127   PT        0.145981    0.579349    0.426966     0.004505
PT2128   PT        0.180567    0.541469    0.426983     0.004505
AU2129   AU        0.180446    0.579688    0.462466     0.007504
AU2130   AU        0.215704    0.539781    0.463354     0.007504
AU2131   AU        0.217952    0.579969    0.428255     0.007504
AU2132   AU        0.251402    0.540913    0.429272     0.007504
PT2133   PT        0.253092    0.579027    0.465020     0.004505
PT2134   PT        0.288883    0.536712    0.463868     0.004505
AU2135   AU        0.289297    0.579649    0.428613     0.007504
AU2136   AU        0.323577    0.539422    0.425884     0.007504
AU2137   AU        0.322811    0.579991    0.462387     0.007504
AU2138   AU        0.358538    0.538547    0.460936     0.007504
AU2139   AU        0.359354    0.578115    0.427147     0.007504
AU2140   AU        0.396202    0.537308    0.427994     0.007504
PT2141   PT        0.397170    0.577565    0.462489     0.004505
AU2142   AU        0.432647    0.541153    0.465141     0.007504
AU2143   AU        0.433339    0.579599    0.426853     0.007504
PT2144   PT        0.466963    0.539027    0.428389     0.004505
PT2145   PT        0.467585    0.578986    0.462152     0.004505
AU2146   AU        0.503899    0.539386    0.462507     0.007504
AU2147   AU        0.503673    0.578309    0.426981     0.007504
AU2148   AU        0.539587    0.539706    0.426549     0.007504
AU2149   AU        0.539998    0.576507    0.463489     0.007504
AU2150   AU        0.576963    0.539021    0.462421     0.007504
AU2151   AU        0.574112    0.574937    0.423945     0.007504
AU2152   AU        0.612276    0.538828    0.428731     0.007504
AU2153   AU        0.611559    0.577008    0.463135     0.007504
AU2154   AU        0.646121    0.536985    0.464203     0.007504
AU2155   AU        0.650157    0.579299    0.427194     0.007504
AU2156   AU        0.684038    0.541434    0.427967     0.007504
PT2157   PT        0.684592    0.577767    0.464972     0.004505
PT2158   PT        0.718624    0.538419    0.464342     0.004505
PT2159   PT        0.720673    0.579174    0.427233     0.004505
AU2160   AU        0.754317    0.541001    0.427608     0.007504
PT2161   PT        0.753712    0.579869    0.464795     0.004505
AU2162   AU        0.789980    0.540144    0.463679     0.007504
PT2163   PT        0.789933    0.580822    0.428870     0.004505
AU2164   AU        0.824353    0.538176    0.427697     0.007504
AU2165   AU        0.824449    0.579978    0.464227     0.007504
AU2166   AU        0.856619    0.538104    0.463146     0.007504
AU2167   AU        0.858189    0.576127    0.427402     0.007504
PT2168   PT        0.890911    0.537827    0.426503     0.004505
PT2169   PT        0.079379    0.618313    0.465630     0.004505
PT2170   PT        0.077956    0.654397    0.429667     0.004505
PT2171   PT        0.112629    0.618458    0.428060     0.004505
AU2172   AU        0.112527    0.655351    0.465309     0.007504
PT2173   PT        0.146623    0.617940    0.464444     0.004505
AU2174   AU        0.147062    0.655834    0.428583     0.007504
AU2175   AU        0.181343    0.616291    0.427480     0.007504
AU2176   AU        0.182220    0.656009    0.464626     0.007504
PT2177   PT        0.218403    0.616808    0.463180     0.004505
AU2178   AU        0.216084    0.657787    0.428072     0.007504
AU2179   AU        0.253985    0.619207    0.428908     0.007504
AU2180   AU        0.252517    0.658754    0.463976     0.007504
AU2181   AU        0.287957    0.618921    0.463985     0.007504
AU2182   AU        0.290252    0.656181    0.429249     0.007504
AU2183   AU        0.325803    0.616489    0.428037     0.007504
PT2184   PT        0.324423    0.654630    0.463484     0.004505
AU2185   AU        0.361155    0.617614    0.463172     0.007504
AU2186   AU        0.359677    0.657758    0.427434     0.007504
AU2187   AU        0.397148    0.616855    0.427041     0.007504
AU2188   AU        0.397360    0.656292    0.462561     0.007504
AU2189   AU        0.433191    0.616521    0.464354     0.007504
AU2190   AU        0.433397    0.655381    0.428330     0.007504
AU2191   AU        0.468735    0.617340    0.427604     0.007504
AU2192   AU        0.466374    0.656764    0.465667     0.007504
AU2193   AU        0.501239    0.616684    0.463728     0.007504
AU2194   AU        0.502879    0.655647    0.429701     0.007504
AU2195   AU        0.539227    0.616252    0.426064     0.007504
AU2196   AU        0.537724    0.655001    0.463840     0.007504
AU2197   AU        0.574075    0.616555    0.469392     0.007504
AU2198   AU        0.573768    0.656244    0.426045     0.007504
PT2199   PT        0.615123    0.618060    0.426155     0.004505
AU2200   AU        0.614226    0.655912    0.463529     0.007504
PT2201   PT        0.648907    0.615581    0.461980     0.004505
PT2202   PT        0.648535    0.655564    0.425783     0.004505
AU2203   AU        0.682014    0.616831    0.426411     0.007504
PT2204   PT        0.682581    0.656589    0.462497     0.004505
AU2205   AU        0.718897    0.618067    0.462558     0.007504
PT2206   PT        0.719774    0.656627    0.429429     0.004505
AU2207   AU        0.755359    0.617032    0.428066     0.007504
AU2208   AU        0.754366    0.657194    0.463822     0.007504
PT2209   PT        0.790896    0.619271    0.465255     0.004505
PT2210   PT        0.791085    0.655506    0.428624     0.004505
PT2211   PT        0.825759    0.618024    0.428427     0.004505
PT2212   PT        0.823397    0.657060    0.463933     0.004505
AU2213   AU        0.857564    0.618017    0.464403     0.007504
PT2214   PT        0.857343    0.657126    0.430009     0.004505
PT2215   PT        0.112872    0.692330    0.428618     0.004505
AU2216   AU        0.111105    0.733482    0.463346     0.007504
AU2217   AU        0.147333    0.694092    0.463022     0.007504
PT2218   PT        0.146603    0.731107    0.427641     0.004505
AU2219   AU        0.182383    0.696103    0.426964     0.007504
AU2220   AU        0.181771    0.732334    0.463118     0.007504
AU2221   AU        0.216100    0.694560    0.462662     0.007504
AU2222   AU        0.217419    0.731978    0.428341     0.007504
PT2223   PT        0.252690    0.693046    0.428636     0.004505
PT2224   PT        0.251288    0.732855    0.462902     0.004505
AU2225   AU        0.289371    0.693800    0.463455     0.007504
PT2226   PT        0.286726    0.731318    0.427349     0.004505
AU2227   AU        0.322102    0.694059    0.427826     0.007504
PT2228   PT        0.322250    0.732539    0.464018     0.004505
PT2229   PT        0.360405    0.693254    0.462638     0.004505
AU2230   AU        0.358488    0.731966    0.428071     0.007504
AU2231   AU        0.395702    0.694015    0.427392     0.007504
PT2232   PT        0.396420    0.732675    0.464426     0.004505
PT2233   PT        0.432211    0.695671    0.463444     0.004505
PT2234   PT        0.431658    0.730450    0.426374     0.004505
PT2235   PT        0.468581    0.693420    0.424498     0.004505
AU2236   AU        0.467811    0.731888    0.466175     0.007504
PT2237   PT        0.501302    0.695025    0.465595     0.004505
PT2238   PT        0.503883    0.730798    0.426101     0.004505
AU2239   AU        0.541100    0.694589    0.425583     0.007504
AU2240   AU        0.539923    0.733078    0.461477     0.007504
AU2241   AU        0.574310    0.694017    0.462657     0.007504
PT2242   PT        0.577842    0.732434    0.427023     0.004505
AU2243   AU        0.610521    0.692145    0.425010     0.007504
PT2244   PT        0.609908    0.735034    0.465102     0.004505
PT2245   PT        0.647601    0.695482    0.462046     0.004505
AU2246   AU        0.648239    0.730606    0.424752     0.007504
AU2247   AU        0.683995    0.695149    0.428143     0.007504
AU2248   AU        0.684140    0.731624    0.461919     0.007504
AU2249   AU        0.718649    0.696021    0.463199     0.007504
AU2250   AU        0.719490    0.732873    0.427285     0.007504
AU2251   AU        0.753681    0.695320    0.428396     0.007504
AU2252   AU        0.752916    0.733372    0.462663     0.007504
PT2253   PT        0.789251    0.695919    0.462694     0.004505
PT2254   PT        0.788864    0.732027    0.426307     0.004505
PT2255   PT        0.823628    0.694558    0.426369     0.004505
AU2256   AU        0.823046    0.731547    0.462454     0.007504
AU2257   AU        0.146527    0.769190    0.461467     0.007504
PT2258   PT        0.181208    0.768346    0.426089     0.004505
PT2259   PT        0.183294    0.806394    0.462162     0.004505
PT2260   PT        0.217354    0.770532    0.463594     0.004505
PT2261   PT        0.217904    0.808926    0.425958     0.004505
PT2262   PT        0.252401    0.770828    0.428064     0.004505
PT2263   PT        0.253789    0.808529    0.462891     0.004505
AU2264   AU        0.287173    0.770167    0.463183     0.007504
AU2265   AU        0.289740    0.808535    0.428822     0.007504
PT2266   PT        0.325975    0.771014    0.427159     0.004505
AU2267   AU        0.323354    0.809681    0.463989     0.007504
AU2268   AU        0.358912    0.772219    0.465823     0.007504
AU2269   AU        0.359268    0.809454    0.429994     0.007504
AU2270   AU        0.394886    0.772065    0.426369     0.007504
AU2271   AU        0.394590    0.810293    0.466463     0.007504
AU2272   AU        0.431124    0.770841    0.463655     0.007504
PT2273   PT        0.429832    0.810871    0.428294     0.004505
PT2274   PT        0.469191    0.767758    0.429072     0.004505
PT2275   PT        0.467587    0.809114    0.463848     0.004505
AU2276   AU        0.502350    0.771221    0.464928     0.007504
AU2277   AU        0.504037    0.809302    0.428232     0.007504
AU2278   AU        0.539396    0.771452    0.426632     0.007504
PT2279   PT        0.539321    0.808598    0.464440     0.004505
AU2280   AU        0.575879    0.772196    0.462657     0.007504
AU2281   AU        0.577459    0.809198    0.427156     0.007504
AU2282   AU        0.612888    0.769995    0.426519     0.007504
AU2283   AU        0.612084    0.807069    0.462909     0.007504
PT2284   PT        0.646933    0.771859    0.461745     0.004505
PT2285   PT        0.647060    0.808360    0.425526     0.004505
PT2286   PT        0.682485    0.770531    0.426590     0.004505
PT2287   PT        0.680559    0.809068    0.462727     0.004505
PT2288   PT        0.716215    0.770391    0.463288     0.004505
PT2289   PT        0.717560    0.806473    0.427112     0.004505
PT2290   PT        0.752386    0.769905    0.427889     0.004505
PT2291   PT        0.752137    0.806841    0.463612     0.004505
AU2292   AU        0.787836    0.769715    0.463427     0.007504
PT2293   PT        0.218627    0.844400    0.462189     0.004505
PT2294   PT        0.254115    0.844732    0.426888     0.004505
PT2295   PT        0.290281    0.846993    0.464288     0.004505
PT2296   PT        0.288842    0.882920    0.428282     0.004505
PT2297   PT        0.323591    0.845552    0.427619     0.004505
AU2298   AU        0.323181    0.884023    0.464316     0.007504
PT2299   PT        0.357238    0.847809    0.464318     0.004505
PT2300   PT        0.361017    0.882923    0.427173     0.004505
AU2301   AU        0.395489    0.847689    0.429405     0.007504
AU2302   AU        0.396065    0.882184    0.463891     0.007504
PT2303   PT        0.432568    0.846566    0.463980     0.004505
AU2304   AU        0.431952    0.881958    0.426850     0.007504
AU2305   AU        0.467274    0.846768    0.426635     0.007504
PT2306   PT        0.467228    0.883354    0.462058     0.004505
PT2307   PT        0.505473    0.846526    0.465456     0.004505
PT2308   PT        0.501529    0.883932    0.427599     0.004505
PT2309   PT        0.539335    0.845798    0.427543     0.004505
AU2310   AU        0.539420    0.881713    0.462038     0.007504
AU2311   AU        0.577357    0.845069    0.464392     0.007504
PT2312   PT        0.575716    0.881344    0.429115     0.004505
PT2313   PT        0.611946    0.845281    0.428650     0.004505
AU2314   AU        0.611682    0.881526    0.462976     0.007504
PT2315   PT        0.646186    0.845501    0.462497     0.004505
PT2316   PT        0.644914    0.883957    0.428285     0.004505
PT2317   PT        0.680631    0.845006    0.428990     0.004505
PT2318   PT        0.715679    0.845260    0.462399     0.004505
AU2319   AU        0.398152    0.919629    0.428378     0.007504
PT2320   PT        0.432689    0.918540    0.460846     0.004505
PT2321   PT        0.467458    0.919826    0.425623     0.004505
PT2322   PT        0.503299    0.918685    0.462739     0.004505
PT2323   PT        0.538515    0.919567    0.429086     0.004505
PT2324   PT        0.288170    0.042218    0.498632     0.004505
AU2325   AU        0.287875    0.040612    0.572654     0.007504
AU2326   AU        0.360176    0.042518    0.499884     0.007504
AU2327   AU        0.396657    0.039999    0.535625     0.007504
PT2328   PT        0.434198    0.039147    0.501796     0.004505
AU2329   AU        0.467571    0.001026    0.498000     0.007504
AU2330   AU        0.470195    0.040151    0.535607     0.007504
PT2331   PT        0.501933    0.038201    0.497377     0.004505
PT2332   PT        0.541543    0.041997    0.536385     0.004505
AU2333   AU        0.576996    0.041544    0.500639     0.007504
PT2334   PT        0.611848    0.041623    0.535106     0.004505
PT2335   PT        0.645922    0.042122    0.499304     0.004505
PT2336   PT        0.219361    0.116420    0.498654     0.004505
AU2337   AU        0.254748    0.079605    0.500291     0.007504
PT2338   PT        0.253441    0.115673    0.535463     0.004505
PT2339   PT        0.290070    0.078260    0.535534     0.004505
PT2340   PT        0.290250    0.115101    0.500288     0.004505
PT2341   PT        0.323376    0.076748    0.498983     0.004505
PT2342   PT        0.324260    0.115328    0.536078     0.004505
AU2343   AU        0.360123    0.076836    0.535708     0.007504
AU2344   AU        0.361448    0.114219    0.500941     0.007504
PT2345   PT        0.398416    0.076193    0.500816     0.004505
AU2346   AU        0.395598    0.113472    0.536120     0.007504
PT2347   PT        0.433199    0.076350    0.537381     0.004505
AU2348   AU        0.431914    0.115035    0.501289     0.007504
AU2349   AU        0.468009    0.076336    0.501460     0.007504
AU2350   AU        0.468617    0.114531    0.537198     0.007504
PT2351   PT        0.504329    0.077098    0.536532     0.004505
AU2352   AU        0.504436    0.114345    0.498384     0.007504
AU2353   AU        0.540344    0.076993    0.499104     0.007504
AU2354   AU        0.540433    0.114701    0.535801     0.007504
PT2355   PT        0.575190    0.077788    0.535715     0.004505
AU2356   AU        0.574317    0.113978    0.500410     0.007504
AU2357   AU        0.612220    0.078315    0.499476     0.007504
AU2358   AU        0.610455    0.115772    0.535403     0.007504
PT2359   PT        0.646446    0.078137    0.535100     0.004505
PT2360   PT        0.646973    0.115358    0.499416     0.004505
PT2361   PT        0.682447    0.077245    0.498258     0.004505
AU2362   AU        0.682220    0.116826    0.535431     0.007504
AU2363   AU        0.717766    0.116616    0.497982     0.007504
PT2364   PT        0.148580    0.192605    0.498011     0.004505
AU2365   AU        0.183148    0.153687    0.498440     0.007504
PT2366   PT        0.182726    0.191546    0.536284     0.004505
AU2367   AU        0.218212    0.152364    0.536262     0.007504
AU2368   AU        0.218830    0.190107    0.500903     0.007504
PT2369   PT        0.255260    0.153289    0.500375     0.004505
PT2370   PT        0.251501    0.189701    0.536619     0.004505
PT2371   PT        0.289916    0.150987    0.536109     0.004505
PT2372   PT        0.287425    0.190261    0.500247     0.004505
PT2373   PT        0.326891    0.151340    0.499464     0.004505
PT2374   PT        0.327352    0.189111    0.537866     0.004505
AU2375   AU        0.361006    0.150522    0.536054     0.007504
AU2376   AU        0.362306    0.189865    0.501291     0.007504
PT2377   PT        0.396439    0.151378    0.499480     0.004505
AU2378   AU        0.397598    0.188516    0.536317     0.007504
AU2379   AU        0.434243    0.152806    0.537869     0.007504
AU2380   AU        0.433419    0.189382    0.498953     0.007504
AU2381   AU        0.467012    0.150757    0.501463     0.007504
AU2382   AU        0.468162    0.190370    0.536225     0.007504
PT2383   PT        0.506051    0.149678    0.536437     0.004505
AU2384   AU        0.504344    0.190314    0.500210     0.007504
PT2385   PT        0.539976    0.151199    0.500572     0.004505
PT2386   PT        0.540776    0.189923    0.535625     0.004505
AU2387   AU        0.575162    0.151713    0.537051     0.007504
AU2388   AU        0.575893    0.189803    0.498883     0.007504
AU2389   AU        0.612661    0.151610    0.499505     0.007504
PT2390   PT        0.609676    0.191154    0.532719     0.004505
PT2391   PT        0.646457    0.152793    0.535235     0.004505
PT2392   PT        0.648115    0.189373    0.500637     0.004505
PT2393   PT        0.682003    0.154062    0.500041     0.004505
PT2394   PT        0.684106    0.191019    0.534487     0.004505
PT2395   PT        0.718883    0.153927    0.534034     0.004505
PT2396   PT        0.718074    0.190810    0.497828     0.004505
PT2397   PT        0.753831    0.155658    0.496636     0.004505
PT2398   PT        0.754456    0.190365    0.534325     0.004505
PT2399   PT        0.787959    0.191240    0.496599     0.004505
PT2400   PT        0.078241    0.266885    0.500513     0.004505
PT2401   PT        0.113672    0.230381    0.498115     0.004505
PT2402   PT        0.112339    0.268207    0.534158     0.004505
AU2403   AU        0.150121    0.230291    0.534754     0.007504
AU2404   AU        0.147026    0.267424    0.500119     0.007504
PT2405   PT        0.184104    0.227631    0.499279     0.004505
PT2406   PT        0.182959    0.267925    0.534210     0.004505
PT2407   PT        0.217914    0.228849    0.536975     0.004505
PT2408   PT        0.218666    0.265118    0.500570     0.004505
AU2409   AU        0.254168    0.230041    0.501385     0.007504
PT2410   PT        0.255008    0.266964    0.538035     0.004505
AU2411   AU        0.289422    0.226985    0.537214     0.007504
PT2412   PT        0.289988    0.266830    0.500194     0.004505
AU2413   AU        0.326402    0.226567    0.500106     0.007504
AU2414   AU        0.325601    0.266568    0.534174     0.007504
AU2415   AU        0.363415    0.228534    0.536328     0.007504
AU2416   AU        0.361115    0.265311    0.500228     0.007504
AU2417   AU        0.396854    0.228870    0.501139     0.007504
AU2418   AU        0.397327    0.266766    0.537109     0.007504
AU2419   AU        0.431363    0.228227    0.536553     0.007504
AU2420   AU        0.431967    0.266941    0.499986     0.007504
AU2421   AU        0.468487    0.227786    0.500571     0.007504
AU2422   AU        0.468782    0.267632    0.536625     0.007504
AU2423   AU        0.504178    0.228507    0.536410     0.007504
AU2424   AU        0.502448    0.266556    0.499761     0.007504
PT2425   PT        0.540069    0.230186    0.498191     0.004505
AU2426   AU        0.539498    0.266475    0.535570     0.007504
AU2427   AU        0.574088    0.228997    0.537037     0.007504
AU2428   AU        0.574266    0.268215    0.497229     0.007504
PT2429   PT        0.610063    0.230418    0.499081     0.004505
AU2430   AU        0.609097    0.265205    0.535166     0.007504
AU2431   AU        0.648255    0.229641    0.534294     0.007504
PT2432   PT        0.647047    0.266406    0.500485     0.004505
PT2433   PT        0.684178    0.227619    0.499084     0.004505
PT2434   PT        0.683958    0.267313    0.536155     0.004505
PT2435   PT        0.719561    0.229401    0.535851     0.004505
AU2436   AU        0.718966    0.267366    0.499398     0.007504
PT2437   PT        0.753839    0.230052    0.498571     0.004505
AU2438   AU        0.754421    0.266437    0.537597     0.007504
PT2439   PT        0.789258    0.230315    0.535512     0.004505
PT2440   PT        0.789298    0.266910    0.498945     0.004505
PT2441   PT        0.822774    0.229706    0.497448     0.004505
PT2442   PT        0.823758    0.269382    0.532871     0.004505
PT2443   PT        0.856448    0.270019    0.497514     0.004505
AU2444   AU        0.080072    0.308012    0.536907     0.007504
AU2445   AU        0.080438    0.345275    0.500873     0.007504
PT2446   PT        0.112231    0.306901    0.502000     0.004505
PT2447   PT        0.113544    0.343997    0.537441     0.004505
AU2448   AU        0.147747    0.305098    0.536475     0.007504
PT2449   PT        0.147000    0.343912    0.502597     0.004505
AU2450   AU        0.180752    0.306440    0.500647     0.007504
PT2451   PT        0.181727    0.342215    0.537694     0.004505
PT2452   PT        0.217246    0.303833    0.537791     0.004505
AU2453   AU        0.217255    0.341088    0.500910     0.007504
AU2454   AU        0.255405    0.306281    0.498140     0.007504
AU2455   AU        0.252353    0.342798    0.535316     0.007504
AU2456   AU        0.290220    0.305317    0.536420     0.007504
AU2457   AU        0.289858    0.345798    0.497596     0.007504
PT2458   PT        0.323381    0.307233    0.500051     0.004505
PT2459   PT        0.324672    0.340801    0.535372     0.004505
PT2460   PT        0.361039    0.303849    0.533294     0.004505
PT2461   PT        0.359054    0.340220    0.497340     0.004505
AU2462   AU        0.396570    0.302723    0.497565     0.007504
AU2463   AU        0.399604    0.339935    0.536680     0.007504
AU2464   AU        0.433115    0.304877    0.535214     0.007504
AU2465   AU        0.433275    0.342159    0.498224     0.007504
AU2466   AU        0.468244    0.305554    0.497162     0.007504
AU2467   AU        0.471867    0.342908    0.534523     0.007504
PT2468   PT        0.505601    0.305128    0.536712     0.004505
AU2469   AU        0.504783    0.344107    0.498815     0.007504
AU2470   AU        0.540116    0.306787    0.498529     0.007504
AU2471   AU        0.540512    0.344176    0.533532     0.007504
PT2472   PT        0.576821    0.304763    0.535664     0.004505
AU2473   AU        0.577280    0.344261    0.498561     0.007504
PT2474   PT        0.611641    0.304350    0.500177     0.004505
AU2475   AU        0.610646    0.345463    0.534051     0.007504
AU2476   AU        0.646924    0.306238    0.537362     0.007504
AU2477   AU        0.644323    0.345445    0.499788     0.007504
AU2478   AU        0.684167    0.304717    0.499659     0.007504
AU2479   AU        0.682078    0.346023    0.532434     0.007504
AU2480   AU        0.721224    0.307020    0.535819     0.007504
PT2481   PT        0.716871    0.343843    0.497536     0.004505
AU2482   AU        0.753130    0.304931    0.500177     0.007504
AU2483   AU        0.753902    0.344109    0.534297     0.007504
PT2484   PT        0.789227    0.305384    0.533833     0.004505
AU2485   AU        0.789173    0.342921    0.499276     0.007504
PT2486   PT        0.823043    0.306529    0.498775     0.004505
AU2487   AU        0.823653    0.342880    0.535435     0.007504
AU2488   AU        0.856206    0.304822    0.536064     0.007504
AU2489   AU        0.855242    0.345394    0.500390     0.007504
PT2490   PT        0.077354    0.382130    0.537855     0.004505
PT2491   PT        0.081091    0.424626    0.498604     0.004505
AU2492   AU        0.112417    0.384444    0.500612     0.007504
PT2493   PT        0.111672    0.421545    0.536381     0.004505
PT2494   PT        0.146956    0.383840    0.535358     0.004505
AU2495   AU        0.146257    0.422633    0.500202     0.007504
AU2496   AU        0.182922    0.385175    0.498244     0.007504
AU2497   AU        0.181602    0.424017    0.535658     0.007504
PT2498   PT        0.216532    0.378524    0.535399     0.004505
AU2499   AU        0.217485    0.423569    0.499304     0.007504
AU2500   AU        0.252548    0.382452    0.501548     0.007504
AU2501   AU        0.255035    0.425561    0.533727     0.007504
PT2502   PT        0.290892    0.384205    0.532658     0.004505
PT2503   PT        0.287698    0.424835    0.499029     0.004505
AU2504   AU        0.327554    0.380801    0.498412     0.007504
PT2505   PT        0.321721    0.428366    0.533845     0.004505
AU2506   AU        0.357638    0.392166    0.538650     0.007504
AU2507   AU        0.358782    0.424669    0.498819     0.007504
AU2508   AU        0.396194    0.390243    0.500167     0.007504
AU2509   AU        0.393459    0.428298    0.534625     0.007504
AU2510   AU        0.434062    0.376284    0.536284     0.007504
AU2511   AU        0.434604    0.425435    0.497507     0.007504
AU2512   AU        0.467721    0.383303    0.497670     0.007504
AU2513   AU        0.470277    0.424216    0.534668     0.007504
AU2514   AU        0.503537    0.382871    0.533985     0.007504
AU2515   AU        0.503328    0.424767    0.499094     0.007504
AU2516   AU        0.538184    0.382790    0.499138     0.007504
AU2517   AU        0.541220    0.424635    0.536123     0.007504
AU2518   AU        0.576285    0.386277    0.538100     0.007504
AU2519   AU        0.576341    0.423962    0.499828     0.007504
AU2520   AU        0.608288    0.384325    0.499665     0.007504
AU2521   AU        0.612501    0.423187    0.536755     0.007504
PT2522   PT        0.647643    0.385146    0.535737     0.004505
AU2523   AU        0.646174    0.422430    0.499224     0.007504
AU2524   AU        0.682253    0.382582    0.498748     0.007504
AU2525   AU        0.681404    0.423252    0.537032     0.007504
AU2526   AU        0.718680    0.382844    0.537111     0.007504
PT2527   PT        0.720240    0.426469    0.496823     0.004505
PT2528   PT        0.756074    0.382758    0.501452     0.004505
AU2529   AU        0.754409    0.422184    0.537128     0.007504
AU2530   AU        0.790376    0.380935    0.536911     0.007504
AU2531   AU        0.789470    0.422118    0.498916     0.007504
AU2532   AU        0.822278    0.383133    0.499581     0.007504
PT2533   PT        0.822440    0.419688    0.536439     0.004505
PT2534   PT        0.857400    0.381750    0.534311     0.004505
PT2535   PT        0.856594    0.420950    0.497978     0.004505
PT2536   PT        0.048920    0.464516    0.497541     0.004505
AU2537   AU        0.079514    0.460830    0.536287     0.007504
PT2538   PT        0.079497    0.502022    0.498305     0.004505
AU2539   AU        0.113305    0.463706    0.498953     0.007504
AU2540   AU        0.111274    0.500859    0.537120     0.007504
PT2541   PT        0.145688    0.463351    0.537302     0.004505
AU2542   AU        0.146610    0.500209    0.498817     0.007504
AU2543   AU        0.180881    0.462902    0.500715     0.007504
AU2544   AU        0.180889    0.499792    0.536515     0.007504
AU2545   AU        0.217068    0.463264    0.535612     0.007504
AU2546   AU        0.215610    0.502245    0.501353     0.007504
AU2547   AU        0.252393    0.462703    0.500459     0.007504
PT2548   PT        0.252701    0.500489    0.537588     0.004505
PT2549   PT        0.287221    0.463470    0.536488     0.004505
AU2550   AU        0.288063    0.499341    0.499037     0.007504
AU2551   AU        0.322398    0.462924    0.497169     0.007504
AU2552   AU        0.322148    0.501165    0.533742     0.007504
AU2553   AU        0.358690    0.465954    0.532975     0.007504
PT2554   PT        0.359013    0.502954    0.497427     0.004505
AU2555   AU        0.396654    0.463791    0.499260     0.007504
AU2556   AU        0.396478    0.500189    0.534926     0.007504
AU2557   AU        0.430197    0.463974    0.534364     0.007504
AU2558   AU        0.430996    0.502599    0.498701     0.007504
AU2559   AU        0.468226    0.463857    0.500470     0.007504
AU2560   AU        0.465098    0.501258    0.535850     0.007504
AU2561   AU        0.503614    0.462363    0.536437     0.007504
PT2562   PT        0.504319    0.499449    0.502401     0.004505
AU2563   AU        0.540964    0.462512    0.501902     0.007504
AU2564   AU        0.539312    0.499522    0.536661     0.007504
AU2565   AU        0.575022    0.462998    0.536655     0.007504
AU2566   AU        0.575264    0.498909    0.500724     0.007504
AU2567   AU        0.610897    0.462869    0.499087     0.007504
AU2568   AU        0.609815    0.501722    0.537076     0.007504
AU2569   AU        0.645121    0.462524    0.537011     0.007504
AU2570   AU        0.645024    0.499469    0.501340     0.007504
AU2571   AU        0.682187    0.460513    0.498613     0.007504
AU2572   AU        0.681221    0.500176    0.536280     0.007504
AU2573   AU        0.716856    0.460738    0.535423     0.007504
PT2574   PT        0.718694    0.502181    0.502304     0.004505
AU2575   AU        0.755666    0.462356    0.499366     0.007504
PT2576   PT        0.753787    0.499659    0.536452     0.004505
PT2577   PT        0.789003    0.460546    0.535564     0.004505
PT2578   PT        0.789542    0.503215    0.500035     0.004505
AU2579   AU        0.823493    0.462064    0.497724     0.007504
PT2580   PT        0.823074    0.499928    0.535364     0.004505
PT2581   PT        0.855141    0.459718    0.535905     0.004505
AU2582   AU        0.856593    0.498981    0.500482     0.007504
PT2583   PT        0.888638    0.459680    0.497092     0.004505
PT2584   PT        0.078515    0.538237    0.534675     0.004505
AU2585   AU        0.078259    0.579979    0.501645     0.007504
PT2586   PT        0.111983    0.540716    0.501063     0.004505
PT2587   PT        0.112846    0.578707    0.534448     0.004505
PT2588   PT        0.146129    0.541247    0.538121     0.004505
AU2589   AU        0.147321    0.579031    0.501081     0.007504
AU2590   AU        0.180749    0.540383    0.499809     0.007504
PT2591   PT        0.182625    0.578858    0.536502     0.004505
AU2592   AU        0.215319    0.539065    0.536608     0.007504
AU2593   AU        0.215543    0.580551    0.498542     0.007504
PT2594   PT        0.250247    0.542104    0.501657     0.004505
PT2595   PT        0.251237    0.579174    0.537856     0.004505
AU2596   AU        0.287467    0.538662    0.535557     0.007504
PT2597   PT        0.289689    0.576448    0.498086     0.004505
AU2598   AU        0.323049    0.539347    0.497366     0.007504
PT2599   PT        0.326168    0.578519    0.534003     0.004505
AU2600   AU        0.359843    0.539423    0.534348     0.007504
AU2601   AU        0.359408    0.580668    0.499920     0.007504
AU2602   AU        0.394940    0.540405    0.500648     0.007504
AU2603   AU        0.397592    0.579958    0.535337     0.007504
AU2604   AU        0.431908    0.540775    0.535033     0.007504
AU2605   AU        0.433845    0.578961    0.499160     0.007504
AU2606   AU        0.468527    0.537930    0.498691     0.007504
AU2607   AU        0.467015    0.576786    0.534494     0.007504
AU2608   AU        0.503005    0.539325    0.535692     0.007504
AU2609   AU        0.505107    0.579105    0.499526     0.007504
AU2610   AU        0.539938    0.536879    0.500231     0.007504
AU2611   AU        0.539630    0.577504    0.535657     0.007504
AU2612   AU        0.575854    0.538018    0.534410     0.007504
AU2613   AU        0.577174    0.574958    0.499913     0.007504
PT2614   PT        0.611159    0.538766    0.500266     0.004505
AU2615   AU        0.611323    0.576934    0.532605     0.007504
AU2616   AU        0.647545    0.537530    0.535239     0.007504
AU2617   AU        0.647756    0.576206    0.500959     0.007504
PT2618   PT        0.682209    0.539998    0.500725     0.004505
AU2619   AU        0.683551    0.578039    0.535643     0.007504
PT2620   PT        0.719679    0.540397    0.537242     0.004505
AU2621   AU        0.716820    0.579938    0.500547     0.007504
PT2622   PT        0.755596    0.540467    0.499846     0.004505
PT2623   PT        0.755476    0.576194    0.536208     0.004505
PT2624   PT        0.789494    0.538245    0.537932     0.004505
PT2625   PT        0.790955    0.579609    0.498637     0.004505
PT2626   PT        0.823540    0.541826    0.499903     0.004505
AU2627   AU        0.823944    0.580128    0.536571     0.007504
PT2628   PT        0.857607    0.537824    0.534621     0.004505
PT2629   PT        0.857299    0.577748    0.501548     0.004505
AU2630   AU        0.077932    0.616999    0.535192     0.007504
PT2631   PT        0.076685    0.655138    0.499780     0.004505
PT2632   PT        0.111763    0.617326    0.500177     0.004505
PT2633   PT        0.111599    0.655634    0.535134     0.004505
PT2634   PT        0.145714    0.617446    0.535855     0.004505
PT2635   PT        0.147506    0.654939    0.499951     0.004505
PT2636   PT        0.181941    0.618771    0.501391     0.004505
AU2637   AU        0.181617    0.655566    0.537197     0.007504
AU2638   AU        0.215993    0.615385    0.535905     0.007504
AU2639   AU        0.218095    0.656015    0.499852     0.007504
AU2640   AU        0.251060    0.618080    0.500940     0.007504
PT2641   PT        0.251870    0.655435    0.537554     0.004505
PT2642   PT        0.288382    0.615354    0.537700     0.004505
AU2643   AU        0.287297    0.655321    0.499612     0.007504
PT2644   PT        0.324517    0.619287    0.499200     0.004505
PT2645   PT        0.324042    0.656106    0.534802     0.004505
PT2646   PT        0.360659    0.618153    0.535720     0.004505
PT2647   PT        0.362491    0.656327    0.499199     0.004505
AU2648   AU        0.396507    0.616509    0.497833     0.007504
AU2649   AU        0.395940    0.658105    0.534961     0.007504
PT2650   PT        0.433033    0.615430    0.536178     0.004505
AU2651   AU        0.430866    0.655420    0.499548     0.007504
PT2652   PT        0.467851    0.617606    0.501118     0.004505
AU2653   AU        0.466545    0.654556    0.536002     0.007504
AU2654   AU        0.503631    0.616987    0.536340     0.007504
AU2655   AU        0.502188    0.654448    0.501219     0.007504
PT2656   PT        0.537312    0.620397    0.501642     0.004505
AU2657   AU        0.538708    0.655779    0.536387     0.007504
AU2658   AU        0.575710    0.616104    0.535877     0.007504
AU2659   AU        0.574759    0.654871    0.501090     0.007504
AU2660   AU        0.611851    0.618064    0.500250     0.007504
AU2661   AU        0.611190    0.654548    0.535707     0.007504
AU2662   AU        0.648254    0.615173    0.536552     0.007504
AU2663   AU        0.648728    0.654587    0.497510     0.007504
PT2664   PT        0.680960    0.614827    0.500706     0.004505
AU2665   AU        0.683463    0.654506    0.536846     0.007504
AU2666   AU        0.718400    0.617281    0.535778     0.007504
AU2667   AU        0.718355    0.656244    0.498581     0.007504
AU2668   AU        0.754296    0.616223    0.500963     0.007504
AU2669   AU        0.752951    0.657231    0.535406     0.007504
PT2670   PT        0.788527    0.615992    0.537936     0.004505
PT2671   PT        0.788988    0.656321    0.497911     0.004505
PT2672   PT        0.824298    0.615338    0.500205     0.004505
PT2673   PT        0.823468    0.652928    0.535984     0.004505
AU2674   AU        0.857699    0.617567    0.537605     0.007504
PT2675   PT        0.858550    0.654305    0.499527     0.004505
PT2676   PT        0.111585    0.692319    0.498917     0.004505
PT2677   PT        0.147872    0.691674    0.536697     0.004505
PT2678   PT        0.147836    0.732782    0.497605     0.004505
AU2679   AU        0.182330    0.694278    0.499084     0.007504
PT2680   PT        0.182816    0.730825    0.536416     0.004505
AU2681   AU        0.217753    0.693435    0.534952     0.007504
PT2682   PT        0.216093    0.734390    0.497123     0.004505
PT2683   PT        0.250529    0.694954    0.498525     0.004505
PT2684   PT        0.249850    0.732831    0.535159     0.004505
PT2685   PT        0.288300    0.695439    0.536139     0.004505
PT2686   PT        0.286038    0.732515    0.499048     0.004505
AU2687   AU        0.321815    0.694480    0.498976     0.007504
AU2688   AU        0.326783    0.734886    0.536403     0.007504
AU2689   AU        0.360445    0.695118    0.536294     0.007504
PT2690   PT        0.360438    0.729686    0.499237     0.004505
AU2691   AU        0.396694    0.695516    0.500568     0.007504
AU2692   AU        0.395924    0.733069    0.536407     0.007504
PT2693   PT        0.432059    0.692977    0.535614     0.004505
AU2694   AU        0.432235    0.733235    0.500370     0.007504
AU2695   AU        0.466237    0.694553    0.501350     0.007504
AU2696   AU        0.466190    0.730943    0.537435     0.007504
AU2697   AU        0.502730    0.692681    0.537527     0.007504
AU2698   AU        0.504283    0.731799    0.500930     0.007504
AU2699   AU        0.538678    0.692686    0.500775     0.007504
AU2700   AU        0.538532    0.731190    0.535859     0.007504
AU2701   AU        0.574641    0.693563    0.536251     0.007504
AU2702   AU        0.572833    0.732376    0.499709     0.007504
PT2703   PT        0.613318    0.695211    0.497967     0.004505
AU2704   AU        0.611046    0.732011    0.535693     0.007504
AU2705   AU        0.649344    0.694166    0.535334     0.007504
AU2706   AU        0.646015    0.734829    0.498517     0.007504
AU2707   AU        0.683818    0.695229    0.498249     0.007504
PT2708   PT        0.686257    0.734058    0.533786     0.004505
PT2709   PT        0.719371    0.695163    0.536662     0.004505
PT2710   PT        0.718907    0.732801    0.497738     0.004505
PT2711   PT        0.753183    0.694968    0.498841     0.004505
AU2712   AU        0.753149    0.731362    0.534603     0.007504
PT2713   PT        0.787923    0.693781    0.533730     0.004505
PT2714   PT        0.786720    0.732455    0.498182     0.004505
AU2715   AU        0.822398    0.692905    0.499650     0.007504
PT2716   PT        0.182170    0.771406    0.498924     0.004505
AU2717   AU        0.216790    0.768988    0.535829     0.007504
AU2718   AU        0.218530    0.807427    0.499501     0.007504
AU2719   AU        0.252810    0.770254    0.499704     0.007504
PT2720   PT        0.253640    0.807127    0.534218     0.004505
AU2721   AU        0.288684    0.770607    0.536686     0.007504
AU2722   AU        0.287645    0.807151    0.498538     0.007504
PT2723   PT        0.323030    0.770109    0.500933     0.004505
AU2724   AU        0.323273    0.809052    0.537373     0.007504
AU2725   AU        0.361799    0.772145    0.535565     0.007504
AU2726   AU        0.358847    0.809163    0.501651     0.007504
PT2727   PT        0.395304    0.770972    0.499842     0.004505
PT2728   PT        0.394154    0.808774    0.536221     0.004505
AU2729   AU        0.430874    0.772138    0.536163     0.007504
PT2730   PT        0.430447    0.810579    0.501372     0.004505
AU2731   AU        0.467489    0.773266    0.501486     0.007504
PT2732   PT        0.466875    0.810133    0.536046     0.004505
AU2733   AU        0.503025    0.772352    0.536994     0.007504
AU2734   AU        0.504106    0.808663    0.501711     0.007504
AU2735   AU        0.538959    0.772213    0.500311     0.007504
PT2736   PT        0.539896    0.809139    0.536516     0.004505
AU2737   AU        0.574587    0.769932    0.533793     0.007504
PT2738   PT        0.573188    0.809966    0.500402     0.004505
PT2739   PT        0.610883    0.770901    0.501434     0.004505
AU2740   AU        0.611808    0.809710    0.535771     0.007504
PT2741   PT        0.648440    0.771248    0.535990     0.004505
PT2742   PT        0.646730    0.808501    0.499240     0.004505
PT2743   PT        0.683164    0.770986    0.499670     0.004505
PT2744   PT        0.684493    0.807029    0.535981     0.004505
PT2745   PT        0.718822    0.769971    0.535767     0.004505
PT2746   PT        0.716091    0.807940    0.497250     0.004505
PT2747   PT        0.752901    0.769585    0.499218     0.004505
AU2748   AU        0.254613    0.845415    0.498053     0.007504
PT2749   PT        0.290041    0.845146    0.533862     0.004505
AU2750   AU        0.289539    0.883175    0.499839     0.007504
PT2751   PT        0.324384    0.846043    0.499874     0.004505
PT2752   PT        0.324895    0.882589    0.534545     0.004505
AU2753   AU        0.359510    0.847910    0.535512     0.007504
PT2754   PT        0.360607    0.883708    0.500449     0.004505
PT2755   PT        0.394960    0.845618    0.502697     0.004505
PT2756   PT        0.396247    0.883974    0.536394     0.004505
PT2757   PT        0.432084    0.846546    0.535893     0.004505
AU2758   AU        0.432290    0.883060    0.498359     0.007504
PT2759   PT        0.467551    0.846312    0.499847     0.004505
PT2760   PT        0.466232    0.883069    0.536465     0.004505
PT2761   PT        0.504808    0.847118    0.535012     0.004505
PT2762   PT        0.502838    0.883820    0.499534     0.004505
AU2763   AU        0.538777    0.845923    0.500871     0.007504
AU2764   AU        0.538827    0.881923    0.535157     0.007504
AU2765   AU        0.574519    0.847559    0.535103     0.007504
AU2766   AU        0.575047    0.881997    0.498404     0.007504
PT2767   PT        0.611921    0.844417    0.500385     0.004505
PT2768   PT        0.610531    0.883276    0.534339     0.004505
PT2769   PT        0.645485    0.845744    0.534254     0.004505
PT2770   PT        0.646872    0.880608    0.496980     0.004505
AU2771   AU        0.681112    0.845041    0.499153     0.007504
PT2772   PT        0.467577    0.918490    0.496513     0.004505
PT2773   PT        0.362510    0.040654    0.571927     0.004505
AU2774   AU        0.396586    0.039972    0.605732     0.007504
PT2775   PT        0.432198    0.039873    0.572979     0.004505
PT2776   PT        0.468061    0.040900    0.607026     0.004505
AU2777   AU        0.504470    0.037866    0.573059     0.007504
PT2778   PT        0.540994    0.040238    0.608938     0.004505
PT2779   PT        0.575488    0.039635    0.570850     0.004505
PT2780   PT        0.221669    0.116519    0.573034     0.004505
PT2781   PT        0.254388    0.115947    0.606931     0.004505
PT2782   PT        0.290734    0.078593    0.606701     0.004505
PT2783   PT        0.289112    0.115322    0.570465     0.004505
AU2784   AU        0.325065    0.078427    0.570553     0.007504
PT2785   PT        0.325090    0.115354    0.606771     0.004505
AU2786   AU        0.360382    0.076986    0.605550     0.007504
AU2787   AU        0.360009    0.114509    0.570989     0.007504
PT2788   PT        0.396726    0.077623    0.571959     0.004505
PT2789   PT        0.397168    0.115578    0.606095     0.004505
PT2790   PT        0.433561    0.075720    0.606171     0.004505
PT2791   PT        0.433667    0.113535    0.572142     0.004505
PT2792   PT        0.468309    0.075940    0.571798     0.004505
PT2793   PT        0.469398    0.114595    0.605727     0.004505
PT2794   PT        0.504939    0.077788    0.605188     0.004505
PT2795   PT        0.504773    0.114524    0.570405     0.004505
PT2796   PT        0.540553    0.075746    0.570359     0.004505
PT2797   PT        0.540358    0.115262    0.606852     0.004505
AU2798   AU        0.576063    0.077415    0.607431     0.007504
AU2799   AU        0.576101    0.116133    0.572876     0.007504
PT2800   PT        0.610910    0.078318    0.571982     0.004505
PT2801   PT        0.612840    0.116199    0.607284     0.004505
AU2802   AU        0.645642    0.079257    0.605936     0.007504
PT2803   PT        0.646887    0.115613    0.570555     0.004505
PT2804   PT        0.682568    0.117022    0.607749     0.004505
PT2805   PT        0.718728    0.117260    0.570560     0.004505
PT2806   PT        0.147373    0.191407    0.573944     0.004505
PT2807   PT        0.183448    0.154744    0.573307     0.004505
PT2808   PT        0.182703    0.191854    0.608343     0.004505
PT2809   PT        0.218037    0.154922    0.607992     0.004505
PT2810   PT        0.218669    0.190995    0.572176     0.004505
AU2811   AU        0.255675    0.152376    0.571920     0.007504
PT2812   PT        0.251816    0.191084    0.608498     0.004505
AU2813   AU        0.291008    0.152131    0.607309     0.007504
AU2814   AU        0.288411    0.190883    0.571446     0.007504
PT2815   PT        0.326066    0.152379    0.571963     0.004505
PT2816   PT        0.322851    0.190573    0.607731     0.004505
PT2817   PT        0.360366    0.154212    0.607610     0.004505
PT2818   PT        0.362002    0.190371    0.571382     0.004505
AU2819   AU        0.395630    0.151650    0.571628     0.007504
AU2820   AU        0.396441    0.190035    0.608538     0.007504
AU2821   AU        0.432322    0.152193    0.605660     0.007504
PT2822   PT        0.431869    0.189848    0.570980     0.004505
AU2823   AU        0.468969    0.152101    0.570662     0.007504
AU2824   AU        0.468248    0.190000    0.607661     0.007504
PT2825   PT        0.505106    0.152055    0.607498     0.004505
AU2826   AU        0.504385    0.190049    0.571876     0.007504
PT2827   PT        0.540324    0.153260    0.571355     0.004505
AU2828   AU        0.540295    0.188887    0.608322     0.007504
AU2829   AU        0.575501    0.152800    0.608660     0.007504
AU2830   AU        0.575551    0.188992    0.570620     0.007504
PT2831   PT        0.611520    0.152094    0.569873     0.004505
AU2832   AU        0.612055    0.190647    0.606692     0.007504
PT2833   PT        0.646857    0.152966    0.604638     0.004505
AU2834   AU        0.646501    0.188957    0.569626     0.007504
PT2835   PT        0.684940    0.152495    0.571199     0.004505
AU2836   AU        0.682075    0.192340    0.605961     0.007504
AU2837   AU        0.716955    0.154793    0.606453     0.007504
AU2838   AU        0.718800    0.191031    0.570169     0.007504
AU2839   AU        0.752972    0.154560    0.572131     0.007504
PT2840   PT        0.752069    0.190854    0.605941     0.004505
AU2841   AU        0.788352    0.193493    0.572058     0.007504
PT2842   PT        0.113741    0.270743    0.606616     0.004505
PT2843   PT        0.148532    0.232321    0.606842     0.004505
PT2844   PT        0.147166    0.268709    0.570654     0.004505
PT2845   PT        0.182004    0.230413    0.570387     0.004505
AU2846   AU        0.181373    0.268384    0.607065     0.007504
PT2847   PT        0.218309    0.228574    0.608783     0.004505
AU2848   AU        0.217680    0.267699    0.573541     0.007504
AU2849   AU        0.253206    0.229303    0.571134     0.007504
AU2850   AU        0.253600    0.266303    0.607245     0.007504
PT2851   PT        0.287841    0.226695    0.606044     0.004505
PT2852   PT        0.289195    0.265257    0.572351     0.004505
AU2853   AU        0.323697    0.228164    0.571266     0.007504
AU2854   AU        0.324951    0.265659    0.606753     0.007504
AU2855   AU        0.359374    0.226758    0.609598     0.007504
AU2856   AU        0.361628    0.265885    0.570168     0.007504
AU2857   AU        0.396084    0.227652    0.574502     0.007504
AU2858   AU        0.396125    0.266635    0.606360     0.007504
AU2859   AU        0.432203    0.228707    0.606625     0.007504
AU2860   AU        0.434494    0.266161    0.572013     0.007504
AU2861   AU        0.469269    0.228340    0.571176     0.007504
PT2862   PT        0.470724    0.266409    0.606667     0.004505
AU2863   AU        0.503842    0.228954    0.607325     0.007504
AU2864   AU        0.504413    0.266131    0.570848     0.007504
AU2865   AU        0.538762    0.229538    0.571796     0.007504
AU2866   AU        0.539365    0.268344    0.609073     0.007504
PT2867   PT        0.574967    0.226666    0.606485     0.004505
AU2868   AU        0.576063    0.268684    0.570661     0.007504
AU2869   AU        0.613221    0.229945    0.570274     0.007504
AU2870   AU        0.611727    0.267131    0.608791     0.007504
PT2871   PT        0.646648    0.229281    0.607829     0.004505
AU2872   AU        0.648082    0.267732    0.570374     0.007504
AU2873   AU        0.682274    0.227981    0.570724     0.007504
PT2874   PT        0.682798    0.266592    0.607417     0.004505
PT2875   PT        0.718399    0.229902    0.606952     0.004505
AU2876   AU        0.718541    0.267696    0.572424     0.007504
AU2877   AU        0.753566    0.228798    0.570978     0.007504
PT2878   PT        0.753983    0.269376    0.606570     0.004505
PT2879   PT        0.786594    0.231061    0.605493     0.004505
PT2880   PT        0.787656    0.268363    0.571355     0.004505
AU2881   AU        0.821193    0.269017    0.605546     0.007504
AU2882   AU        0.079046    0.343601    0.572369     0.007504
PT2883   PT        0.113933    0.306561    0.571214     0.004505
PT2884   PT        0.111655    0.348096    0.607957     0.004505
PT2885   PT        0.149008    0.306712    0.607901     0.004505
PT2886   PT        0.146870    0.345005    0.574531     0.004505
AU2887   AU        0.181816    0.306230    0.572903     0.007504
PT2888   PT        0.180787    0.344629    0.608069     0.004505
AU2889   AU        0.217848    0.305058    0.607904     0.007504
AU2890   AU        0.215287    0.343582    0.572520     0.007504
AU2891   AU        0.252689    0.304337    0.572377     0.007504
AU2892   AU        0.253294    0.343439    0.609083     0.007504
PT2893   PT        0.286692    0.305633    0.609025     0.004505
AU2894   AU        0.288120    0.342320    0.570740     0.007504
PT2895   PT        0.325349    0.303590    0.570696     0.004505
PT2896   PT        0.324092    0.342704    0.607959     0.004505
PT2897   PT        0.361352    0.306549    0.607312     0.004505
AU2898   AU        0.359437    0.340431    0.572341     0.007504
PT2899   PT        0.398663    0.304187    0.571074     0.004505
PT2900   PT        0.396984    0.342215    0.608584     0.004505
PT2901   PT        0.433860    0.304390    0.607072     0.004505
PT2902   PT        0.432899    0.341699    0.573448     0.004505
AU2903   AU        0.468831    0.304317    0.571362     0.007504
PT2904   PT        0.469771    0.345305    0.609476     0.004505
PT2905   PT        0.503928    0.306142    0.607335     0.004505
AU2906   AU        0.505349    0.345226    0.570243     0.007504
PT2907   PT        0.540252    0.304424    0.572724     0.004505
PT2908   PT        0.539263    0.344733    0.605490     0.004505
AU2909   AU        0.574437    0.303092    0.607767     0.007504
AU2910   AU        0.574174    0.349395    0.570892     0.007504
AU2911   AU        0.611551    0.303718    0.573319     0.007504
AU2912   AU        0.609257    0.345295    0.606089     0.007504
PT2913   PT        0.647401    0.303976    0.606901     0.004505
AU2914   AU        0.646701    0.342674    0.571240     0.007504
AU2915   AU        0.685173    0.307623    0.569810     0.007504
PT2916   PT        0.683365    0.344322    0.605797     0.004505
AU2917   AU        0.717786    0.307526    0.606843     0.007504
AU2918   AU        0.719466    0.344774    0.571805     0.007504
PT2919   PT        0.753166    0.305278    0.571158     0.004505
PT2920   PT        0.754368    0.345838    0.605218     0.004505
AU2921   AU        0.789718    0.307360    0.606566     0.007504
PT2922   PT        0.789691    0.345792    0.570489     0.004505
AU2923   AU        0.823510    0.306266    0.570911     0.007504
PT2924   PT        0.822620    0.344816    0.604887     0.004505
PT2925   PT        0.858308    0.343330    0.570657     0.004505
PT2926   PT        0.078191    0.384547    0.604971     0.004505
PT2927   PT        0.078920    0.421575    0.570977     0.004505
AU2928   AU        0.113578    0.382739    0.571810     0.007504
AU2929   AU        0.111170    0.422562    0.605888     0.007504
PT2930   PT        0.147653    0.384930    0.608425     0.004505
AU2931   AU        0.145736    0.423043    0.572401     0.007504
AU2932   AU        0.180793    0.385660    0.571262     0.007504
PT2933   PT        0.179557    0.423529    0.607858     0.004505
PT2934   PT        0.216724    0.378344    0.609133     0.004505
PT2935   PT        0.214405    0.425659    0.571220     0.004505
PT2936   PT        0.251063    0.378191    0.570821     0.004505
AU2937   AU        0.253402    0.427861    0.607238     0.007504
PT2938   PT        0.289737    0.380296    0.608389     0.004505
AU2939   AU        0.289361    0.429345    0.572248     0.007504
PT2940   PT        0.325587    0.378348    0.571587     0.004505
PT2941   PT        0.325620    0.414839    0.606782     0.004505
AU2942   AU        0.361555    0.377823    0.609604     0.007504
AU2943   AU        0.357780    0.431932    0.570784     0.007504
AU2944   AU        0.397455    0.376647    0.571198     0.007504
PT2945   PT        0.391353    0.432247    0.607688     0.004505
PT2946   PT        0.434873    0.379480    0.609731     0.004505
AU2947   AU        0.430070    0.429631    0.570580     0.007504
AU2948   AU        0.471297    0.383052    0.572067     0.007504
AU2949   AU        0.471570    0.421433    0.610599     0.007504
AU2950   AU        0.505831    0.381980    0.606680     0.007504
AU2951   AU        0.503615    0.424717    0.570865     0.007504
AU2952   AU        0.538835    0.386037    0.569204     0.007504
AU2953   AU        0.538955    0.423986    0.606817     0.007504
PT2954   PT        0.574099    0.384439    0.610009     0.004505
PT2955   PT        0.576646    0.425355    0.571768     0.004505
AU2956   AU        0.610322    0.385730    0.571755     0.007504
AU2957   AU        0.611160    0.423363    0.608335     0.007504
AU2958   AU        0.645675    0.383034    0.607022     0.007504
AU2959   AU        0.646299    0.422843    0.572340     0.007504
AU2960   AU        0.683385    0.383631    0.573430     0.007504
AU2961   AU        0.682452    0.421034    0.607214     0.007504
AU2962   AU        0.717420    0.382214    0.608567     0.007504
AU2963   AU        0.719392    0.423949    0.571970     0.007504
AU2964   AU        0.755482    0.383679    0.571787     0.007504
AU2965   AU        0.755584    0.423140    0.608152     0.007504
AU2966   AU        0.787956    0.385049    0.607577     0.007504
PT2967   PT        0.789255    0.422567    0.572662     0.004505
PT2968   PT        0.823266    0.381904    0.570762     0.004505
AU2969   AU        0.823604    0.422670    0.606116     0.007504
PT2970   PT        0.857105    0.382336    0.604297     0.004505
AU2971   AU        0.856930    0.421399    0.569471     0.007504
AU2972   AU        0.079032    0.460724    0.608116     0.007504
PT2973   PT        0.078301    0.499334    0.571300     0.004505
PT2974   PT        0.112033    0.460045    0.572263     0.004505
PT2975   PT        0.111220    0.499383    0.607319     0.004505
AU2976   AU        0.146452    0.462539    0.608812     0.007504
AU2977   AU        0.145855    0.502142    0.571948     0.007504
AU2978   AU        0.180418    0.461197    0.572904     0.007504
AU2979   AU        0.179188    0.499466    0.608047     0.007504
AU2980   AU        0.215504    0.462516    0.606472     0.007504
AU2981   AU        0.215839    0.501376    0.572513     0.007504
AU2982   AU        0.253698    0.463440    0.571406     0.007504
PT2983   PT        0.251913    0.501129    0.606953     0.004505
PT2984   PT        0.287085    0.466427    0.606105     0.004505
AU2985   AU        0.287588    0.503846    0.572772     0.007504
AU2986   AU        0.322807    0.467277    0.569788     0.007504
AU2987   AU        0.322797    0.504859    0.607438     0.007504
AU2988   AU        0.359330    0.469806    0.606959     0.007504
AU2989   AU        0.359725    0.503789    0.569914     0.007504
AU2990   AU        0.394084    0.466884    0.571576     0.007504
PT2991   PT        0.396123    0.504592    0.608418     0.004505
AU2992   AU        0.428512    0.467024    0.604357     0.007504
PT2993   PT        0.430128    0.502462    0.570678     0.004505
PT2994   PT        0.467813    0.463236    0.570482     0.004505
AU2995   AU        0.468014    0.500797    0.605444     0.007504
AU2996   AU        0.503372    0.463626    0.607590     0.007504
AU2997   AU        0.504194    0.500929    0.572423     0.007504
AU2998   AU        0.538364    0.462542    0.569931     0.007504
AU2999   AU        0.540290    0.498558    0.607356     0.007504
AU3000   AU        0.575700    0.461613    0.609141     0.007504
AU3001   AU        0.573991    0.500310    0.571505     0.007504
PT3002   PT        0.609942    0.461362    0.571022     0.004505
PT3003   PT        0.610489    0.499204    0.604438     0.004505
AU3004   AU        0.646744    0.462924    0.604604     0.007504
PT3005   PT        0.647811    0.500698    0.569749     0.004505
PT3006   PT        0.680594    0.459634    0.570736     0.004505
PT3007   PT        0.684759    0.500860    0.604037     0.004505
PT3008   PT        0.719219    0.459660    0.609418     0.004505
AU3009   AU        0.721347    0.499281    0.570171     0.007504
PT3010   PT        0.753654    0.459814    0.571318     0.004505
AU3011   AU        0.754966    0.499107    0.607644     0.007504
PT3012   PT        0.787842    0.461600    0.607173     0.004505
PT3013   PT        0.787553    0.498850    0.572242     0.004505
PT3014   PT        0.823085    0.460280    0.570707     0.004505
PT3015   PT        0.822202    0.498994    0.605116     0.004505
PT3016   PT        0.857108    0.462170    0.604544     0.004505
AU3017   AU        0.856413    0.499926    0.570638     0.007504
AU3018   AU        0.077000    0.498745    0.642832     0.007504
AU3019   AU        0.077140    0.578403    0.568231     0.007504
PT3020   PT        0.110168    0.539289    0.571740     0.004505
PT3021   PT        0.112402    0.575938    0.606201     0.004505
PT3022   PT        0.146463    0.538678    0.607258     0.004505
PT3023   PT        0.147242    0.578020    0.572123     0.004505
AU3024   AU        0.181387    0.540325    0.572550     0.007504
AU3025   AU        0.181339    0.576983    0.610328     0.007504
PT3026   PT        0.216768    0.540055    0.608133     0.004505
PT3027   PT        0.215611    0.579655    0.573476     0.004505
PT3028   PT        0.253721    0.541497    0.571611     0.004505
PT3029   PT        0.249422    0.579542    0.607852     0.004505
PT3030   PT        0.286519    0.541957    0.608862     0.004505
AU3031   AU        0.286538    0.579283    0.572693     0.007504
AU3032   AU        0.325365    0.541287    0.568666     0.007504
PT3033   PT        0.323471    0.578448    0.609695     0.004505
AU3034   AU        0.358880    0.541609    0.606416     0.007504
AU3035   AU        0.360469    0.578452    0.571989     0.007504
AU3036   AU        0.397431    0.540584    0.569248     0.007504
AU3037   AU        0.396639    0.578639    0.605698     0.007504
AU3038   AU        0.434848    0.539089    0.608076     0.007504
AU3039   AU        0.434312    0.577946    0.571223     0.007504
AU3040   AU        0.466918    0.539157    0.569595     0.007504
AU3041   AU        0.467610    0.577786    0.607964     0.007504
AU3042   AU        0.502370    0.539916    0.606894     0.007504
AU3043   AU        0.504140    0.578716    0.570563     0.007504
AU3044   AU        0.539326    0.539069    0.571910     0.007504
PT3045   PT        0.538273    0.577451    0.606742     0.004505
PT3046   PT        0.576580    0.538231    0.606892     0.004505
AU3047   AU        0.572639    0.577294    0.572999     0.007504
AU3048   AU        0.612353    0.540934    0.569901     0.007504
PT3049   PT        0.611933    0.577349    0.606728     0.004505
PT3050   PT        0.649003    0.536868    0.605863     0.004505
AU3051   AU        0.647787    0.576349    0.569510     0.007504
PT3052   PT        0.683873    0.539824    0.571257     0.004505
AU3053   AU        0.681507    0.578212    0.608463     0.007504
AU3054   AU        0.719480    0.539372    0.606328     0.007504
PT3055   PT        0.720215    0.576320    0.573795     0.004505
AU3056   AU        0.753783    0.538483    0.573593     0.007504
PT3057   PT        0.753978    0.576799    0.608160     0.004505
AU3058   AU        0.788604    0.537414    0.607879     0.007504
PT3059   PT        0.788068    0.576317    0.573621     0.004505
PT3060   PT        0.823368    0.538650    0.571362     0.004505
PT3061   PT        0.822783    0.574968    0.606053     0.004505
AU3062   AU        0.856801    0.539758    0.607815     0.007504
PT3063   PT        0.857141    0.579371    0.571095     0.004505
PT3064   PT        0.113132    0.614548    0.570714     0.004505
AU3065   AU        0.111291    0.654541    0.607547     0.007504
AU3066   AU        0.147454    0.615691    0.607487     0.007504
PT3067   PT        0.145808    0.653578    0.571580     0.004505
AU3068   AU        0.181551    0.617784    0.571671     0.007504
AU3069   AU        0.181240    0.654152    0.607645     0.007504
PT3070   PT        0.214868    0.618241    0.607994     0.004505
PT3071   PT        0.217408    0.656749    0.572315     0.004505
AU3072   AU        0.250356    0.616883    0.572199     0.007504
AU3073   AU        0.251762    0.655107    0.609475     0.007504
PT3074   PT        0.286302    0.616725    0.608105     0.004505
AU3075   AU        0.289038    0.656388    0.572479     0.007504
AU3076   AU        0.325327    0.616558    0.571977     0.007504
AU3077   AU        0.323064    0.655480    0.609863     0.007504
AU3078   AU        0.360701    0.618271    0.607952     0.007504
AU3079   AU        0.361007    0.657169    0.571645     0.007504
AU3080   AU        0.394396    0.617372    0.571685     0.007504
AU3081   AU        0.396802    0.657804    0.606415     0.007504
AU3082   AU        0.431576    0.615703    0.606842     0.007504
PT3083   PT        0.433351    0.655615    0.570554     0.004505
AU3084   AU        0.467873    0.617249    0.570926     0.007504
AU3085   AU        0.466481    0.656020    0.608353     0.007504
AU3086   AU        0.504878    0.612914    0.606609     0.007504
PT3087   PT        0.502662    0.652762    0.570358     0.004505
AU3088   AU        0.538402    0.617115    0.571138     0.007504
PT3089   PT        0.538057    0.653312    0.608256     0.004505
AU3090   AU        0.574169    0.617356    0.606102     0.007504
AU3091   AU        0.572680    0.656116    0.571477     0.007504
AU3092   AU        0.612400    0.614219    0.570831     0.007504
AU3093   AU        0.612362    0.653054    0.608259     0.007504
AU3094   AU        0.647757    0.617126    0.609051     0.007504
AU3095   AU        0.647607    0.653967    0.571852     0.007504
PT3096   PT        0.682181    0.613889    0.571934     0.004505
PT3097   PT        0.684188    0.652930    0.608063     0.004505
PT3098   PT        0.718391    0.614280    0.607197     0.004505
PT3099   PT        0.719315    0.654309    0.572820     0.004505
PT3100   PT        0.752871    0.615676    0.574328     0.004505
AU3101   AU        0.754252    0.652934    0.608363     0.007504
PT3102   PT        0.789713    0.613423    0.609228     0.004505
PT3103   PT        0.789144    0.656285    0.569815     0.004505
AU3104   AU        0.822223    0.615523    0.572380     0.007504
PT3105   PT        0.822928    0.653914    0.605552     0.004505
AU3106   AU        0.146473    0.692940    0.607469     0.007504
PT3107   PT        0.148226    0.730649    0.571672     0.004505
AU3108   AU        0.182210    0.692817    0.572356     0.007504
PT3109   PT        0.181488    0.731705    0.605314     0.004505
AU3110   AU        0.216880    0.694896    0.607572     0.007504
AU3111   AU        0.216490    0.731206    0.571713     0.007504
AU3112   AU        0.252108    0.695286    0.570614     0.007504
AU3113   AU        0.252346    0.730570    0.607404     0.007504
PT3114   PT        0.287169    0.691677    0.607272     0.004505
PT3115   PT        0.287359    0.733232    0.571100     0.004505
AU3116   AU        0.321790    0.693205    0.573245     0.007504
PT3117   PT        0.323514    0.732508    0.606395     0.004505
PT3118   PT        0.359545    0.695456    0.607564     0.004505
AU3119   AU        0.358449    0.734022    0.572634     0.007504
AU3120   AU        0.397062    0.696012    0.572165     0.007504
PT3121   PT        0.396421    0.734367    0.609531     0.004505
PT3122   PT        0.431013    0.695284    0.607594     0.004505
AU3123   AU        0.434012    0.732226    0.572475     0.007504
AU3124   AU        0.467207    0.692937    0.570720     0.007504
AU3125   AU        0.465729    0.733237    0.607790     0.007504
PT3126   PT        0.504936    0.693546    0.608306     0.004505
PT3127   PT        0.504619    0.732024    0.572675     0.004505
PT3128   PT        0.539314    0.694402    0.571926     0.004505
AU3129   AU        0.540004    0.731700    0.607700     0.007504
AU3130   AU        0.575340    0.695638    0.606569     0.007504
AU3131   AU        0.574284    0.733296    0.572091     0.007504
AU3132   AU        0.610864    0.693537    0.571335     0.007504
AU3133   AU        0.610490    0.732365    0.606910     0.007504
AU3134   AU        0.647348    0.694335    0.607682     0.007504
AU3135   AU        0.648487    0.732766    0.571486     0.007504
AU3136   AU        0.685310    0.692716    0.572724     0.007504
PT3137   PT        0.682749    0.729816    0.606381     0.004505
PT3138   PT        0.718815    0.692290    0.606678     0.004505
AU3139   AU        0.717617    0.733072    0.571172     0.007504
AU3140   AU        0.752131    0.693191    0.571322     0.007504
AU3141   AU        0.751518    0.730238    0.606532     0.007504
PT3142   PT        0.786543    0.692111    0.606545     0.004505
PT3143   PT        0.787080    0.729946    0.571697     0.004505
PT3144   PT        0.183324    0.768453    0.570158     0.004505
AU3145   AU        0.216744    0.768955    0.605372     0.007504
PT3146   PT        0.218615    0.805578    0.570255     0.004505
AU3147   AU        0.251106    0.768082    0.571986     0.007504
AU3148   AU        0.253193    0.806476    0.606940     0.007504
PT3149   PT        0.288651    0.770828    0.606026     0.004505
AU3150   AU        0.288370    0.807587    0.571897     0.007504
PT3151   PT        0.323179    0.770913    0.572147     0.004505
PT3152   PT        0.322857    0.807474    0.606383     0.004505
AU3153   AU        0.358325    0.770282    0.607309     0.007504
PT3154   PT        0.358155    0.807202    0.572060     0.004505
PT3155   PT        0.397052    0.771131    0.571866     0.004505
PT3156   PT        0.394551    0.806811    0.607561     0.004505
PT3157   PT        0.431434    0.771588    0.608513     0.004505
AU3158   AU        0.432725    0.808103    0.572475     0.007504
PT3159   PT        0.467704    0.772044    0.570888     0.004505
PT3160   PT        0.466302    0.809225    0.607190     0.004505
AU3161   AU        0.502588    0.772063    0.608177     0.007504
AU3162   AU        0.502000    0.808624    0.571857     0.007504
AU3163   AU        0.537138    0.772474    0.570722     0.007504
AU3164   AU        0.539306    0.808106    0.608136     0.007504
AU3165   AU        0.575886    0.768756    0.604979     0.007504
AU3166   AU        0.576260    0.809686    0.571334     0.007504
PT3167   PT        0.611966    0.771806    0.569547     0.004505
PT3168   PT        0.610107    0.807271    0.605020     0.004505
AU3169   AU        0.647907    0.769140    0.606219     0.007504
PT3170   PT        0.647533    0.809003    0.570153     0.004505
PT3171   PT        0.682395    0.770151    0.571766     0.004505
PT3172   PT        0.682299    0.805678    0.607501     0.004505
PT3173   PT        0.718325    0.767906    0.608550     0.004505
PT3174   PT        0.717482    0.804778    0.572196     0.004505
AU3175   AU        0.752224    0.769644    0.571203     0.007504
PT3176   PT        0.287411    0.845713    0.605491     0.004505
PT3177   PT        0.324595    0.844965    0.570480     0.004505
PT3178   PT        0.357881    0.844949    0.605996     0.004505
PT3179   PT        0.361618    0.884228    0.570005     0.004505
PT3180   PT        0.395707    0.846536    0.570713     0.004505
AU3181   AU        0.393148    0.882227    0.605820     0.007504
PT3182   PT        0.430954    0.845774    0.607738     0.004505
AU3183   AU        0.430863    0.882783    0.571715     0.007504
PT3184   PT        0.467744    0.846373    0.570998     0.004505
PT3185   PT        0.466712    0.882070    0.607281     0.004505
AU3186   AU        0.503652    0.845506    0.606050     0.007504
PT3187   PT        0.503573    0.881507    0.572247     0.004505
PT3188   PT        0.540587    0.844498    0.571074     0.004505
AU3189   AU        0.540440    0.881977    0.607055     0.007504
PT3190   PT        0.575585    0.844617    0.607402     0.004505
PT3191   PT        0.573961    0.882937    0.572198     0.004505
PT3192   PT        0.610423    0.845323    0.569500     0.004505
PT3193   PT        0.645728    0.845008    0.608326     0.004505
AU3194   AU        0.289940    0.115448    0.641852     0.007504
PT3195   PT        0.324873    0.114874    0.676379     0.004505
PT3196   PT        0.363323    0.115019    0.642299     0.004505
PT3197   PT        0.396872    0.076585    0.640088     0.004505
AU3198   AU        0.400388    0.113080    0.674856     0.007504
PT3199   PT        0.432960    0.077480    0.678280     0.004505
AU3200   AU        0.433805    0.113992    0.640163     0.007504
PT3201   PT        0.469241    0.077559    0.643412     0.004505
AU3202   AU        0.468433    0.115511    0.678771     0.007504
PT3203   PT        0.504788    0.077670    0.677425     0.004505
PT3204   PT        0.506188    0.114733    0.643435     0.004505
AU3205   AU        0.540619    0.078535    0.642447     0.007504
PT3206   PT        0.539320    0.115455    0.677547     0.004505
PT3207   PT        0.574333    0.115089    0.643373     0.004505
PT3208   PT        0.613082    0.117694    0.678686     0.004505
PT3209   PT        0.647780    0.115464    0.641799     0.004505
PT3210   PT        0.218623    0.191314    0.643825     0.004505
AU3211   AU        0.256103    0.151874    0.642684     0.007504
PT3212   PT        0.255092    0.191399    0.677375     0.004505
PT3213   PT        0.289590    0.152068    0.676258     0.004505
PT3214   PT        0.288082    0.191711    0.643338     0.004505
AU3215   AU        0.324566    0.152988    0.641884     0.007504
PT3216   PT        0.323478    0.190642    0.678541     0.004505
AU3217   AU        0.359095    0.154290    0.678376     0.007504
PT3218   PT        0.361170    0.191061    0.646021     0.004505
AU3219   AU        0.395807    0.154154    0.645936     0.007504
AU3220   AU        0.397253    0.191806    0.679848     0.007504
PT3221   PT        0.433413    0.152100    0.677184     0.004505
AU3222   AU        0.432224    0.190196    0.642894     0.007504
PT3223   PT        0.467312    0.151885    0.642797     0.004505
AU3224   AU        0.468585    0.189582    0.678561     0.007504
AU3225   AU        0.505027    0.153091    0.679695     0.007504
AU3226   AU        0.504257    0.189162    0.643553     0.007504
PT3227   PT        0.540043    0.154063    0.643569     0.004505
PT3228   PT        0.540294    0.189510    0.678926     0.004505
PT3229   PT        0.575583    0.155213    0.680316     0.004505
PT3230   PT        0.576454    0.189913    0.643960     0.004505
PT3231   PT        0.611614    0.153718    0.643113     0.004505
PT3232   PT        0.611949    0.191837    0.679042     0.004505
PT3233   PT        0.646792    0.155032    0.676923     0.004505
AU3234   AU        0.646688    0.191988    0.643969     0.007504
PT3235   PT        0.682451    0.154802    0.639571     0.004505
PT3236   PT        0.681520    0.192659    0.677222     0.004505
PT3237   PT        0.718360    0.191893    0.642660     0.004505
PT3238   PT        0.149016    0.267282    0.644021     0.004505
PT3239   PT        0.183167    0.230201    0.643758     0.004505
PT3240   PT        0.184651    0.269125    0.678401     0.004505
PT3241   PT        0.219006    0.230629    0.678002     0.004505
PT3242   PT        0.218467    0.268113    0.644092     0.004505
PT3243   PT        0.251952    0.229573    0.643308     0.004505
PT3244   PT        0.253781    0.267768    0.680383     0.004505
AU3245   AU        0.286759    0.228219    0.678822     0.007504
PT3246   PT        0.288541    0.267599    0.644122     0.004505
PT3247   PT        0.322993    0.229797    0.645346     0.004505
AU3248   AU        0.324067    0.265758    0.679791     0.007504
PT3249   PT        0.358759    0.227894    0.678106     0.004505
AU3250   AU        0.361121    0.268399    0.643768     0.007504
PT3251   PT        0.395387    0.229762    0.645061     0.004505
AU3252   AU        0.395481    0.268722    0.679316     0.007504
PT3253   PT        0.431308    0.229181    0.679860     0.004505
PT3254   PT        0.432516    0.265017    0.643436     0.004505
AU3255   AU        0.468089    0.227131    0.645649     0.007504
AU3256   AU        0.467732    0.268050    0.678655     0.007504
PT3257   PT        0.504865    0.228770    0.678829     0.004505
PT3258   PT        0.504668    0.267102    0.642618     0.004505
AU3259   AU        0.538865    0.227415    0.643685     0.007504
AU3260   AU        0.540810    0.267802    0.681080     0.007504
AU3261   AU        0.575445    0.228217    0.680467     0.007504
AU3262   AU        0.573939    0.265874    0.643095     0.007504
AU3263   AU        0.611857    0.227260    0.643399     0.007504
PT3264   PT        0.611138    0.267241    0.678314     0.004505
AU3265   AU        0.647361    0.230950    0.677335     0.007504
PT3266   PT        0.648911    0.269468    0.642927     0.004505
PT3267   PT        0.682763    0.230645    0.642279     0.004505
AU3268   AU        0.682584    0.269132    0.678978     0.007504
PT3269   PT        0.715761    0.232147    0.678063     0.004505
AU3270   AU        0.717893    0.268743    0.643476     0.007504
PT3271   PT        0.754300    0.230423    0.638962     0.004505
AU3272   AU        0.751607    0.270830    0.676941     0.007504
PT3273   PT        0.787104    0.269259    0.641014     0.004505
AU3274   AU        0.148924    0.305831    0.678150     0.007504
AU3275   AU        0.147114    0.345731    0.643430     0.007504
AU3276   AU        0.181501    0.306953    0.643744     0.007504
AU3277   AU        0.182000    0.344728    0.679486     0.007504
PT3278   PT        0.218197    0.306357    0.678572     0.004505
AU3279   AU        0.218690    0.343355    0.644561     0.007504
AU3280   AU        0.252470    0.304201    0.643291     0.007504
AU3281   AU        0.253922    0.345097    0.679299     0.007504
AU3282   AU        0.287180    0.306008    0.679366     0.007504
PT3283   PT        0.289294    0.345429    0.644270     0.004505
PT3284   PT        0.324214    0.306814    0.645466     0.004505
PT3285   PT        0.324165    0.344593    0.680233     0.004505
AU3286   AU        0.360105    0.305498    0.679355     0.007504
AU3287   AU        0.359021    0.344930    0.645618     0.007504
AU3288   AU        0.397913    0.305004    0.643212     0.007504
PT3289   PT        0.397545    0.342358    0.681189     0.004505
AU3290   AU        0.433087    0.305575    0.680946     0.007504
PT3291   PT        0.432462    0.341473    0.644949     0.004505
AU3292   AU        0.469576    0.305826    0.642674     0.007504
AU3293   AU        0.469227    0.343454    0.676770     0.007504
AU3294   AU        0.504151    0.303391    0.677166     0.007504
AU3295   AU        0.506201    0.346014    0.643192     0.007504
PT3296   PT        0.539734    0.305244    0.642640     0.004505
AU3297   AU        0.541561    0.347118    0.680872     0.007504
PT3298   PT        0.577634    0.307235    0.679348     0.004505
AU3299   AU        0.575361    0.345992    0.645146     0.007504
AU3300   AU        0.610050    0.307936    0.643000     0.007504
PT3301   PT        0.612665    0.346110    0.679462     0.004505
PT3302   PT        0.648254    0.305659    0.676137     0.004505
PT3303   PT        0.647332    0.343170    0.640998     0.004505
PT3304   PT        0.684292    0.306798    0.641328     0.004505
AU3305   AU        0.683826    0.343787    0.677255     0.007504
AU3306   AU        0.718269    0.308158    0.677379     0.007504
PT3307   PT        0.718066    0.346110    0.641583     0.004505
PT3308   PT        0.751051    0.306209    0.639741     0.004505
AU3309   AU        0.752210    0.344821    0.676519     0.007504
PT3310   PT        0.786191    0.306675    0.674744     0.004505
AU3311   AU        0.789074    0.346396    0.639886     0.007504
PT3312   PT        0.111692    0.384844    0.642529     0.004505
PT3313   PT        0.112661    0.422285    0.678472     0.004505
PT3314   PT        0.149708    0.385561    0.675880     0.004505
PT3315   PT        0.146937    0.424406    0.643113     0.004505
PT3316   PT        0.183863    0.383067    0.644036     0.004505
PT3317   PT        0.182175    0.424279    0.677805     0.004505
PT3318   PT        0.219309    0.382323    0.680295     0.004505
AU3319   AU        0.217256    0.423989    0.645316     0.007504
AU3320   AU        0.252468    0.380795    0.644032     0.007504
AU3321   AU        0.250711    0.423239    0.678879     0.007504
AU3322   AU        0.287653    0.382520    0.679235     0.007504
PT3323   PT        0.286223    0.418920    0.644749     0.004505
PT3324   PT        0.324076    0.380547    0.643310     0.004505
PT3325   PT        0.323860    0.418843    0.680152     0.004505
PT3326   PT        0.360922    0.381476    0.680559     0.004505
PT3327   PT        0.361349    0.416008    0.645754     0.004505
AU3328   AU        0.397258    0.379589    0.645023     0.007504
PT3329   PT        0.398908    0.415860    0.678550     0.004505
AU3330   AU        0.433613    0.380192    0.679038     0.007504
AU3331   AU        0.434501    0.419176    0.647357     0.007504
PT3332   PT        0.470249    0.383042    0.644847     0.004505
PT3333   PT        0.469917    0.421635    0.679573     0.004505
AU3334   AU        0.505006    0.383936    0.679416     0.007504
AU3335   AU        0.505452    0.421446    0.644264     0.007504
PT3336   PT        0.539608    0.382917    0.642586     0.004505
PT3337   PT        0.539537    0.423588    0.681607     0.004505
AU3338   AU        0.575835    0.385692    0.681768     0.007504
AU3339   AU        0.574306    0.423030    0.642854     0.007504
AU3340   AU        0.610847    0.384423    0.644644     0.007504
AU3341   AU        0.611681    0.422769    0.676998     0.007504
PT3342   PT        0.646492    0.385387    0.678831     0.004505
AU3343   AU        0.646384    0.426855    0.643087     0.007504
AU3344   AU        0.682833    0.381560    0.641328     0.007504
PT3345   PT        0.683229    0.423587    0.679997     0.004505
PT3346   PT        0.716752    0.383565    0.676024     0.004505
AU3347   AU        0.719476    0.422276    0.643551     0.007504
AU3348   AU        0.752688    0.383676    0.643589     0.007504
PT3349   PT        0.752657    0.421710    0.678184     0.004505
AU3350   AU        0.786027    0.383970    0.674985     0.007504
AU3351   AU        0.788524    0.423697    0.642904     0.007504
PT3352   PT        0.823366    0.385952    0.639903     0.004505
PT3353   PT        0.858105    0.459960    0.680813     0.004505
PT3354   PT        0.112095    0.461651    0.643197     0.004505
PT3355   PT        0.112038    0.501192    0.676073     0.004505
PT3356   PT        0.146057    0.462726    0.677869     0.004505
PT3357   PT        0.146007    0.500987    0.643798     0.004505
AU3358   AU        0.180996    0.462716    0.644373     0.007504
PT3359   PT        0.181264    0.499387    0.678847     0.004505
PT3360   PT        0.215848    0.461486    0.679225     0.004505
PT3361   PT        0.217313    0.498373    0.642298     0.004505
AU3362   AU        0.251534    0.460997    0.643618     0.007504
AU3363   AU        0.253282    0.502600    0.678213     0.007504
PT3364   PT        0.285249    0.463179    0.677642     0.004505
AU3365   AU        0.285960    0.503176    0.643418     0.007504
AU3366   AU        0.323646    0.468095    0.642865     0.007504
PT3367   PT        0.323851    0.501599    0.679935     0.004505
PT3368   PT        0.359973    0.467587    0.678780     0.004505
AU3369   AU        0.359165    0.504930    0.643509     0.007504
AU3370   AU        0.393695    0.468461    0.642315     0.007504
AU3371   AU        0.395724    0.504503    0.678953     0.007504
AU3372   AU        0.433989    0.460938    0.680764     0.007504
PT3373   PT        0.430526    0.502034    0.645374     0.004505
AU3374   AU        0.468960    0.461855    0.643777     0.007504
AU3375   AU        0.469776    0.501517    0.678736     0.007504
AU3376   AU        0.502300    0.461641    0.680886     0.007504
PT3377   PT        0.505262    0.500996    0.642506     0.004505
PT3378   PT        0.539420    0.459033    0.642295     0.004505
AU3379   AU        0.540508    0.499596    0.678501     0.007504
PT3380   PT        0.575320    0.459988    0.679130     0.004505
AU3381   AU        0.573972    0.502035    0.643517     0.007504
AU3382   AU        0.609336    0.462540    0.643158     0.007504
AU3383   AU        0.611950    0.499870    0.679982     0.007504
AU3384   AU        0.648085    0.462590    0.680281     0.007504
PT3385   PT        0.648204    0.498014    0.643527     0.004505
AU3386   AU        0.683488    0.460436    0.643260     0.007504
AU3387   AU        0.681738    0.499391    0.679396     0.007504
PT3388   PT        0.718336    0.464127    0.679300     0.004505
PT3389   PT        0.719643    0.501039    0.643060     0.004505
AU3390   AU        0.752896    0.461708    0.643190     0.007504
AU3391   AU        0.752922    0.501237    0.679694     0.007504
AU3392   AU        0.787642    0.462626    0.678104     0.007504
PT3393   PT        0.788563    0.499578    0.643442     0.004505
AU3394   AU        0.824415    0.462793    0.642204     0.007504
PT3395   PT        0.822631    0.498525    0.678602     0.004505
PT3396   PT        0.112010    0.537139    0.640468     0.004505
PT3397   PT        0.146294    0.537959    0.678106     0.004505
PT3398   PT        0.146341    0.576966    0.642240     0.004505
AU3399   AU        0.180619    0.537598    0.642956     0.007504
AU3400   AU        0.182662    0.576893    0.676982     0.007504
AU3401   AU        0.216524    0.538070    0.678375     0.007504
PT3402   PT        0.216343    0.577762    0.643112     0.004505
PT3403   PT        0.250404    0.540110    0.643065     0.004505
PT3404   PT        0.250369    0.577509    0.678752     0.004505
AU3405   AU        0.286865    0.539500    0.678699     0.007504
PT3406   PT        0.285954    0.578096    0.644732     0.004505
PT3407   PT        0.323007    0.540301    0.645844     0.004505
AU3408   AU        0.323002    0.579214    0.679625     0.007504
PT3409   PT        0.358500    0.540733    0.680118     0.004505
AU3410   AU        0.358363    0.578955    0.644166     0.007504
AU3411   AU        0.396831    0.540670    0.643289     0.007504
PT3412   PT        0.394708    0.577148    0.680433     0.004505
PT3413   PT        0.432539    0.540344    0.680934     0.004505
AU3414   AU        0.431602    0.579681    0.642375     0.007504
AU3415   AU        0.466810    0.539527    0.643057     0.007504
AU3416   AU        0.467881    0.579184    0.678155     0.007504
AU3417   AU        0.505038    0.539917    0.679128     0.007504
AU3418   AU        0.503712    0.578159    0.643271     0.007504
PT3419   PT        0.539390    0.540171    0.641526     0.004505
AU3420   AU        0.538597    0.579920    0.679191     0.007504
PT3421   PT        0.573716    0.539830    0.679737     0.004505
AU3422   AU        0.573429    0.578853    0.642526     0.007504
PT3423   PT        0.613965    0.536385    0.642111     0.004505
AU3424   AU        0.611891    0.576779    0.679720     0.007504
AU3425   AU        0.649377    0.537218    0.677314     0.007504
AU3426   AU        0.646578    0.578666    0.646494     0.007504
AU3427   AU        0.682274    0.538818    0.642290     0.007504
AU3428   AU        0.683285    0.578387    0.680312     0.007504
AU3429   AU        0.717440    0.539846    0.678342     0.007504
AU3430   AU        0.718334    0.577651    0.644687     0.007504
PT3431   PT        0.752987    0.537819    0.642017     0.004505
PT3432   PT        0.752754    0.577566    0.678379     0.004505
AU3433   AU        0.787043    0.537514    0.677778     0.007504
PT3434   PT        0.788216    0.574413    0.641002     0.004505
AU3435   AU        0.822724    0.535047    0.642054     0.007504
PT3436   PT        0.147982    0.616084    0.677904     0.004505
PT3437   PT        0.147295    0.652118    0.642385     0.004505
AU3438   AU        0.181529    0.614909    0.642569     0.007504
PT3439   PT        0.181265    0.654786    0.676369     0.004505
PT3440   PT        0.216796    0.616849    0.678631     0.004505
AU3441   AU        0.218337    0.655187    0.644536     0.007504
PT3442   PT        0.252195    0.616458    0.644002     0.004505
AU3443   AU        0.252310    0.655199    0.678466     0.007504
PT3444   PT        0.289601    0.617736    0.679697     0.004505
AU3445   AU        0.286823    0.656349    0.644009     0.007504
AU3446   AU        0.322157    0.617032    0.644805     0.007504
AU3447   AU        0.324276    0.656448    0.680178     0.007504
PT3448   PT        0.357975    0.617285    0.678636     0.004505
AU3449   AU        0.358325    0.653542    0.644715     0.007504
PT3450   PT        0.395214    0.616872    0.646313     0.004505
PT3451   PT        0.396923    0.655314    0.680604     0.004505
AU3452   AU        0.431054    0.616199    0.681428     0.007504
AU3453   AU        0.431682    0.656450    0.644508     0.007504
AU3454   AU        0.466365    0.615305    0.643478     0.007504
AU3455   AU        0.467035    0.656659    0.679513     0.007504
PT3456   PT        0.502944    0.616064    0.678301     0.004505
AU3457   AU        0.503710    0.655379    0.643322     0.007504
AU3458   AU        0.539489    0.614073    0.643578     0.007504
PT3459   PT        0.540447    0.654415    0.679125     0.004505
PT3460   PT        0.576668    0.615342    0.681408     0.004505
AU3461   AU        0.575226    0.655168    0.641622     0.007504
AU3462   AU        0.609827    0.615764    0.644779     0.007504
PT3463   PT        0.611325    0.655863    0.677669     0.004505
PT3464   PT        0.647519    0.616756    0.679295     0.004505
AU3465   AU        0.650140    0.653482    0.642182     0.007504
PT3466   PT        0.682679    0.614085    0.644605     0.004505
PT3467   PT        0.680575    0.655567    0.678518     0.004505
AU3468   AU        0.716875    0.616953    0.677890     0.007504
PT3469   PT        0.718477    0.654050    0.642425     0.004505
AU3470   AU        0.753474    0.616032    0.642620     0.007504
PT3471   PT        0.752061    0.654274    0.677922     0.004505
AU3472   AU        0.787105    0.615997    0.677217     0.007504
PT3473   PT        0.788437    0.652639    0.640339     0.004505
PT3474   PT        0.182019    0.692661    0.642814     0.004505
PT3475   PT        0.217558    0.693184    0.678424     0.004505
PT3476   PT        0.217921    0.729759    0.642566     0.004505
PT3477   PT        0.253573    0.692212    0.642450     0.004505
PT3478   PT        0.252461    0.730551    0.677651     0.004505
AU3479   AU        0.286154    0.694053    0.677398     0.007504
PT3480   PT        0.289096    0.731575    0.642208     0.004505
PT3481   PT        0.323902    0.693792    0.644639     0.004505
PT3482   PT        0.322421    0.731862    0.677761     0.004505
AU3483   AU        0.358330    0.693686    0.678031     0.007504
PT3484   PT        0.359788    0.733349    0.642444     0.004505
PT3485   PT        0.395495    0.694315    0.642959     0.004505
PT3486   PT        0.397893    0.733111    0.677367     0.004505
AU3487   AU        0.432216    0.692774    0.678869     0.007504
PT3488   PT        0.432355    0.730096    0.644076     0.004505
PT3489   PT        0.468307    0.692480    0.644721     0.004505
PT3490   PT        0.466608    0.731305    0.679265     0.004505
AU3491   AU        0.502600    0.694439    0.679098     0.007504
AU3492   AU        0.502386    0.731653    0.643358     0.007504
PT3493   PT        0.540612    0.692995    0.643147     0.004505
PT3494   PT        0.537198    0.733072    0.678931     0.004505
AU3495   AU        0.575566    0.693996    0.678808     0.007504
PT3496   PT        0.575386    0.732537    0.643528     0.004505
PT3497   PT        0.611999    0.694249    0.642684     0.004505
PT3498   PT        0.612352    0.730702    0.677486     0.004505
PT3499   PT        0.646900    0.692359    0.676407     0.004505
AU3500   AU        0.648650    0.730839    0.643122     0.007504
AU3501   AU        0.682280    0.694365    0.641909     0.007504
PT3502   PT        0.681082    0.730049    0.675991     0.004505
PT3503   PT        0.716159    0.692191    0.676952     0.004505
PT3504   PT        0.716924    0.731682    0.641885     0.004505
AU3505   AU        0.753593    0.691752    0.642655     0.007504
PT3506   PT        0.253759    0.768199    0.642364     0.004505
PT3507   PT        0.287380    0.768708    0.677900     0.004505
AU3508   AU        0.288231    0.806418    0.641541     0.007504
PT3509   PT        0.323900    0.771414    0.641445     0.004505
PT3510   PT        0.322052    0.806352    0.674351     0.004505
PT3511   PT        0.358263    0.768310    0.676988     0.004505
AU3512   AU        0.359624    0.806630    0.641366     0.007504
PT3513   PT        0.394901    0.770041    0.643415     0.004505
PT3514   PT        0.399690    0.808796    0.678511     0.004505
PT3515   PT        0.432918    0.770310    0.677650     0.004505
AU3516   AU        0.432666    0.807435    0.642091     0.007504
AU3517   AU        0.467016    0.770549    0.642928     0.007504
PT3518   PT        0.468116    0.807732    0.679168     0.004505
PT3519   PT        0.501600    0.768706    0.679655     0.004505
AU3520   AU        0.503780    0.807471    0.644256     0.007504
PT3521   PT        0.538347    0.770034    0.643965     0.004505
PT3522   PT        0.536894    0.807058    0.679571     0.004505
PT3523   PT        0.574698    0.769157    0.678530     0.004505
AU3524   AU        0.572879    0.807610    0.643061     0.007504
AU3525   AU        0.610596    0.769860    0.639633     0.007504
AU3526   AU        0.612535    0.805747    0.675706     0.007504
PT3527   PT        0.646698    0.768385    0.678676     0.004505
PT3528   PT        0.647946    0.805020    0.641723     0.004505
AU3529   AU        0.681844    0.767814    0.641649     0.007504
PT3530   PT        0.396881    0.844783    0.641567     0.004505
PT3531   PT        0.433220    0.844725    0.677167     0.004505
AU3532   AU        0.469496    0.844007    0.642633     0.007504
AU3533   AU        0.503433    0.843276    0.679360     0.007504
PT3534   PT        0.538951    0.845521    0.642681     0.004505
PT3535   PT        0.436693    0.114317    0.713439     0.004505
PT3536   PT        0.503689    0.116082    0.713698     0.004505
PT3537   PT        0.289827    0.192968    0.712847     0.004505
PT3538   PT        0.322479    0.154140    0.713190     0.004505
AU3539   AU        0.323460    0.193230    0.747740     0.007504
AU3540   AU        0.358642    0.191987    0.713461     0.007504
PT3541   PT        0.366098    0.142961    0.723399     0.004505
AU3542   AU        0.397022    0.194899    0.751195     0.007504
PT3543   PT        0.435073    0.153892    0.750425     0.004505
PT3544   PT        0.432157    0.191820    0.714846     0.004505
AU3545   AU        0.468051    0.153397    0.713317     0.007504
AU3546   AU        0.468221    0.193622    0.751357     0.007504
PT3547   PT        0.502880    0.152400    0.748595     0.004505
AU3548   AU        0.503765    0.191701    0.714788     0.007504
AU3549   AU        0.537191    0.152227    0.713316     0.007504
PT3550   PT        0.539768    0.191180    0.747116     0.004505
PT3551   PT        0.575746    0.192657    0.714543     0.004505
PT3552   PT        0.611213    0.155076    0.712384     0.004505
PT3553   PT        0.611711    0.193679    0.748369     0.004505
AU3554   AU        0.646814    0.193260    0.713310     0.007504
PT3555   PT        0.217311    0.268434    0.714446     0.004505
PT3556   PT        0.254007    0.230745    0.714112     0.004505
PT3557   PT        0.253789    0.268180    0.748986     0.004505
PT3558   PT        0.289685    0.228305    0.749933     0.004505
AU3559   AU        0.290180    0.266664    0.714700     0.007504
PT3560   PT        0.324467    0.228128    0.712875     0.004505
AU3561   AU        0.324491    0.267871    0.749209     0.007504
AU3562   AU        0.360650    0.229496    0.749038     0.007504
AU3563   AU        0.359751    0.265267    0.713301     0.007504
PT3564   PT        0.395375    0.227764    0.713358     0.004505
AU3565   AU        0.397606    0.267394    0.750802     0.007504
PT3566   PT        0.433602    0.229391    0.751153     0.004505
AU3567   AU        0.433741    0.265866    0.716668     0.007504
AU3568   AU        0.467849    0.227658    0.714685     0.007504
PT3569   PT        0.468649    0.268161    0.749717     0.004505
PT3570   PT        0.503598    0.230671    0.749539     0.004505
AU3571   AU        0.504190    0.266140    0.714136     0.007504
PT3572   PT        0.539370    0.229507    0.713773     0.004505
PT3573   PT        0.539451    0.267514    0.749892     0.004505
PT3574   PT        0.575073    0.232223    0.747542     0.004505
PT3575   PT        0.576193    0.268703    0.714524     0.004505
PT3576   PT        0.612473    0.231793    0.713079     0.004505
PT3577   PT        0.610618    0.268928    0.747984     0.004505
AU3578   AU        0.646685    0.230986    0.745427     0.007504
AU3579   AU        0.645877    0.270032    0.712830     0.007504
PT3580   PT        0.681416    0.231192    0.712610     0.004505
PT3581   PT        0.680986    0.269333    0.746132     0.004505
PT3582   PT        0.717126    0.269408    0.713808     0.004505
PT3583   PT        0.184462    0.304915    0.712164     0.004505
PT3584   PT        0.218485    0.309062    0.748039     0.004505
AU3585   AU        0.218744    0.345214    0.712587     0.007504
PT3586   PT        0.254245    0.305320    0.714895     0.004505
PT3587   PT        0.252522    0.346752    0.749770     0.004505
AU3588   AU        0.289105    0.307590    0.750307     0.007504
PT3589   PT        0.288598    0.342732    0.715339     0.004505
AU3590   AU        0.325866    0.305945    0.715525     0.007504
AU3591   AU        0.325279    0.344406    0.750180     0.007504
AU3592   AU        0.360759    0.307126    0.751672     0.007504
PT3593   PT        0.361592    0.343784    0.716013     0.004505
AU3594   AU        0.395663    0.305143    0.715668     0.007504
AU3595   AU        0.397978    0.343998    0.751863     0.007504
PT3596   PT        0.431980    0.305506    0.750307     0.004505
AU3597   AU        0.433462    0.343768    0.715123     0.007504
AU3598   AU        0.469201    0.306863    0.713810     0.007504
AU3599   AU        0.467953    0.342631    0.750115     0.007504
PT3600   PT        0.503054    0.306163    0.750088     0.004505
AU3601   AU        0.502013    0.345046    0.715490     0.007504
PT3602   PT        0.540894    0.306683    0.714898     0.004505
AU3603   AU        0.539952    0.345788    0.749459     0.007504
PT3604   PT        0.577458    0.307940    0.749413     0.004505
AU3605   AU        0.577451    0.345495    0.714457     0.007504
AU3606   AU        0.613343    0.307773    0.715102     0.007504
PT3607   PT        0.611525    0.345952    0.750973     0.004505
PT3608   PT        0.648619    0.307164    0.748492     0.004505
PT3609   PT        0.647302    0.345219    0.714574     0.004505
AU3610   AU        0.682562    0.309022    0.713755     0.007504
PT3611   PT        0.683178    0.347576    0.748280     0.004505
PT3612   PT        0.716437    0.308366    0.746691     0.004505
PT3613   PT        0.716596    0.346313    0.712211     0.004505
PT3614   PT        0.752180    0.307398    0.711552     0.004505
PT3615   PT        0.148274    0.423835    0.710991     0.004505
PT3616   PT        0.183301    0.385763    0.713170     0.004505
PT3617   PT        0.182125    0.425689    0.750013     0.004505
PT3618   PT        0.218149    0.385787    0.748108     0.004505
PT3619   PT        0.217467    0.424360    0.714565     0.004505
PT3620   PT        0.252760    0.385806    0.715341     0.004505
PT3621   PT        0.252583    0.422925    0.749138     0.004505
PT3622   PT        0.289211    0.383700    0.749618     0.004505
PT3623   PT        0.286681    0.425553    0.714662     0.004505
AU3624   AU        0.323612    0.382372    0.716937     0.007504
PT3625   PT        0.323449    0.424700    0.748703     0.004505
PT3626   PT        0.361098    0.384938    0.751334     0.004505
PT3627   PT        0.360851    0.421587    0.715251     0.004505
PT3628   PT        0.397540    0.381591    0.715277     0.004505
AU3629   AU        0.395981    0.421865    0.751448     0.007504
PT3630   PT        0.432534    0.382385    0.749415     0.004505
AU3631   AU        0.433391    0.422587    0.713407     0.007504
AU3632   AU        0.467341    0.382173    0.715636     0.007504
PT3633   PT        0.469489    0.421736    0.750450     0.004505
PT3634   PT        0.505259    0.384313    0.751322     0.004505
AU3635   AU        0.504631    0.423074    0.716953     0.007504
PT3636   PT        0.540528    0.385044    0.716411     0.004505
AU3637   AU        0.541333    0.422234    0.750323     0.007504
AU3638   AU        0.576366    0.384994    0.750078     0.007504
AU3639   AU        0.575493    0.422425    0.715411     0.007504
AU3640   AU        0.611377    0.383426    0.714766     0.007504
AU3641   AU        0.610885    0.422354    0.749913     0.007504
AU3642   AU        0.647939    0.383539    0.750329     0.007504
AU3643   AU        0.646250    0.421623    0.715771     0.007504
PT3644   PT        0.683759    0.386437    0.714904     0.004505
PT3645   PT        0.684172    0.423475    0.748944     0.004505
PT3646   PT        0.716122    0.385400    0.749066     0.004505
PT3647   PT        0.717142    0.423182    0.714143     0.004505
AU3648   AU        0.752476    0.386161    0.712553     0.007504
PT3649   PT        0.750949    0.423036    0.747053     0.004505
PT3650   PT        0.787134    0.423192    0.710679     0.004505
PT3651   PT        0.146694    0.498426    0.713273     0.004505
PT3652   PT        0.182241    0.461144    0.713805     0.004505
PT3653   PT        0.182813    0.500447    0.747539     0.004505
PT3654   PT        0.216857    0.459965    0.747025     0.004505
PT3655   PT        0.217223    0.501160    0.713965     0.004505
PT3656   PT        0.253808    0.464198    0.715613     0.004505
PT3657   PT        0.253497    0.501345    0.750141     0.004505
PT3658   PT        0.286525    0.462754    0.749832     0.004505
AU3659   AU        0.287270    0.502475    0.714069     0.007504
AU3660   AU        0.322188    0.462703    0.713065     0.007504
PT3661   PT        0.322876    0.500531    0.750316     0.004505
PT3662   PT        0.358925    0.464347    0.750562     0.004505
PT3663   PT        0.358045    0.502916    0.715180     0.004505
PT3664   PT        0.395626    0.464163    0.717561     0.004505
AU3665   AU        0.394583    0.504863    0.750809     0.007504
PT3666   PT        0.432249    0.462021    0.749978     0.004505
AU3667   AU        0.431229    0.500387    0.714160     0.007504
PT3668   PT        0.468103    0.463728    0.714850     0.004505
AU3669   AU        0.467997    0.500035    0.751683     0.007504
PT3670   PT        0.505389    0.460727    0.752238     0.004505
AU3671   AU        0.502722    0.501296    0.716736     0.007504
PT3672   PT        0.538541    0.461692    0.716607     0.004505
PT3673   PT        0.541210    0.498273    0.750682     0.004505
PT3674   PT        0.574866    0.460355    0.748913     0.004505
AU3675   AU        0.576059    0.499051    0.714813     0.007504
PT3676   PT        0.610779    0.460341    0.712998     0.004505
PT3677   PT        0.610804    0.497091    0.749449     0.004505
AU3678   AU        0.647541    0.460109    0.749551     0.007504
PT3679   PT        0.645974    0.500015    0.715063     0.004505
PT3680   PT        0.682799    0.461639    0.714857     0.004505
AU3681   AU        0.684397    0.498980    0.749711     0.007504
AU3682   AU        0.717507    0.460755    0.749340     0.007504
PT3683   PT        0.716790    0.501151    0.713770     0.004505
PT3684   PT        0.752048    0.460102    0.713330     0.004505
AU3685   AU        0.750973    0.498714    0.748122     0.007504
PT3686   PT        0.786773    0.499988    0.713067     0.004505
PT3687   PT        0.181364    0.539264    0.712666     0.004505
PT3688   PT        0.215808    0.541033    0.747414     0.004505
PT3689   PT        0.216095    0.579462    0.713018     0.004505
AU3690   AU        0.253060    0.539595    0.714382     0.007504
PT3691   PT        0.252651    0.577277    0.748989     0.004505
PT3692   PT        0.287159    0.539768    0.748611     0.004505
PT3693   PT        0.286900    0.578869    0.714742     0.004505
PT3694   PT        0.323820    0.541218    0.715184     0.004505
PT3695   PT        0.323324    0.577057    0.750119     0.004505
PT3696   PT        0.358725    0.542068    0.750938     0.004505
AU3697   AU        0.358792    0.579002    0.715157     0.007504
AU3698   AU        0.397833    0.539776    0.713861     0.007504
AU3699   AU        0.394215    0.578289    0.749556     0.007504
AU3700   AU        0.433121    0.539275    0.751679     0.007504
AU3701   AU        0.432027    0.579218    0.714929     0.007504
PT3702   PT        0.465980    0.538535    0.715426     0.004505
PT3703   PT        0.467224    0.579929    0.751795     0.004505
PT3704   PT        0.503049    0.540505    0.750002     0.004505
AU3705   AU        0.503597    0.579500    0.715641     0.007504
AU3706   AU        0.537929    0.540073    0.715928     0.007504
AU3707   AU        0.538799    0.578299    0.750689     0.007504
PT3708   PT        0.574083    0.538525    0.748108     0.004505
PT3709   PT        0.575896    0.578909    0.716513     0.004505
PT3710   PT        0.612235    0.538852    0.715550     0.004505
PT3711   PT        0.612284    0.578627    0.749621     0.004505
AU3712   AU        0.645278    0.537705    0.750469     0.007504
PT3713   PT        0.647586    0.575806    0.716308     0.004505
AU3714   AU        0.682520    0.538193    0.715210     0.007504
PT3715   PT        0.683227    0.574383    0.749192     0.004505
AU3716   AU        0.717646    0.537778    0.749010     0.007504
AU3717   AU        0.716434    0.577203    0.714031     0.007504
PT3718   PT        0.751320    0.537761    0.713557     0.004505
AU3719   AU        0.182905    0.617193    0.713413     0.007504
PT3720   PT        0.217392    0.617109    0.746331     0.004505
PT3721   PT        0.217568    0.654065    0.713113     0.004505
PT3722   PT        0.252662    0.617155    0.712676     0.004505
PT3723   PT        0.251681    0.654186    0.747187     0.004505
AU3724   AU        0.288013    0.616247    0.747610     0.007504
AU3725   AU        0.287435    0.655524    0.713248     0.007504
AU3726   AU        0.322518    0.616950    0.714800     0.007504
PT3727   PT        0.324041    0.653335    0.749830     0.004505
PT3728   PT        0.359551    0.616089    0.750570     0.004505
AU3729   AU        0.360062    0.652586    0.715248     0.007504
AU3730   AU        0.395125    0.616319    0.715210     0.007504
PT3731   PT        0.395470    0.655738    0.750166     0.004505
PT3732   PT        0.431771    0.618227    0.749504     0.004505
AU3733   AU        0.431664    0.656375    0.714733     0.007504
PT3734   PT        0.467843    0.615824    0.714792     0.004505
PT3735   PT        0.467382    0.654853    0.748096     0.004505
AU3736   AU        0.503431    0.616397    0.749990     0.007504
AU3737   AU        0.503170    0.654944    0.714840     0.007504
AU3738   AU        0.539488    0.616493    0.714238     0.007504
AU3739   AU        0.539418    0.655583    0.748736     0.007504
PT3740   PT        0.574599    0.616051    0.749959     0.004505
PT3741   PT        0.576686    0.657076    0.714071     0.004505
AU3742   AU        0.612560    0.616825    0.714854     0.007504
PT3743   PT        0.610422    0.652954    0.748768     0.004505
AU3744   AU        0.645819    0.615232    0.749509     0.007504
PT3745   PT        0.646028    0.654861    0.714159     0.004505
AU3746   AU        0.682650    0.616494    0.712963     0.007504
AU3747   AU        0.681816    0.655098    0.747617     0.007504
PT3748   PT        0.716219    0.616395    0.747081     0.004505
PT3749   PT        0.716265    0.652794    0.712154     0.004505
AU3750   AU        0.752200    0.616129    0.712283     0.007504
PT3751   PT        0.253722    0.691519    0.713110     0.004505
PT3752   PT        0.253969    0.732854    0.747645     0.004505
PT3753   PT        0.286348    0.731778    0.714024     0.004505
PT3754   PT        0.322018    0.693746    0.712680     0.004505
PT3755   PT        0.324341    0.734605    0.745747     0.004505
AU3756   AU        0.358986    0.693092    0.748119     0.007504
AU3757   AU        0.359516    0.732446    0.713410     0.007504
PT3758   PT        0.394917    0.694770    0.713168     0.004505
AU3759   AU        0.395845    0.731535    0.747834     0.007504
PT3760   PT        0.430452    0.694279    0.748973     0.004505
PT3761   PT        0.431743    0.730576    0.714655     0.004505
AU3762   AU        0.465606    0.695236    0.715052     0.007504
PT3763   PT        0.467069    0.732146    0.749472     0.004505
PT3764   PT        0.502489    0.692394    0.749667     0.004505
PT3765   PT        0.502338    0.732210    0.715676     0.004505
PT3766   PT        0.538688    0.691856    0.714679     0.004505
PT3767   PT        0.537610    0.730465    0.750919     0.004505
PT3768   PT        0.574357    0.693357    0.748385     0.004505
PT3769   PT        0.574738    0.729931    0.713101     0.004505
PT3770   PT        0.611767    0.691201    0.715872     0.004505
PT3771   PT        0.611787    0.730674    0.745657     0.004505
AU3772   AU        0.646161    0.691925    0.748190     0.007504
AU3773   AU        0.647074    0.728193    0.713731     0.007504
PT3774   PT        0.682053    0.691102    0.712179     0.004505
PT3775   PT        0.321982    0.770658    0.710688     0.004505
PT3776   PT        0.398774    0.770425    0.714075     0.004505
AU3777   AU        0.431107    0.769573    0.748427     0.007504
AU3778   AU        0.434054    0.805963    0.712808     0.007504
AU3779   AU        0.466875    0.769635    0.714644     0.007504
PT3780   PT        0.501197    0.769037    0.749946     0.004505
AU3781   AU        0.501483    0.805908    0.713744     0.007504
PT3782   PT        0.536302    0.768999    0.714807     0.004505
PT3783   PT        0.611165    0.766745    0.710973     0.004505
PT3784   PT        0.430890    0.193428    0.784917     0.004505
PT3785   PT        0.503318    0.192693    0.783422     0.004505
PT3786   PT        0.288653    0.267561    0.784248     0.004505
AU3787   AU        0.361693    0.267448    0.784599     0.007504
PT3788   PT        0.397348    0.231918    0.786041     0.004505
PT3789   PT        0.398016    0.267943    0.820666     0.004505
AU3790   AU        0.432413    0.266201    0.785043     0.007504
PT3791   PT        0.469237    0.229669    0.786269     0.004505
AU3792   AU        0.467398    0.267528    0.819048     0.007504
PT3793   PT        0.502576    0.268987    0.783591     0.004505
PT3794   PT        0.539089    0.230789    0.783679     0.004505
PT3795   PT        0.538930    0.270215    0.818595     0.004505
PT3796   PT        0.574545    0.270780    0.784528     0.004505
PT3797   PT        0.646602    0.268322    0.781724     0.004505
AU3798   AU        0.290928    0.346152    0.783458     0.007504
PT3799   PT        0.322456    0.307362    0.783801     0.004505
PT3800   PT        0.323596    0.346419    0.819320     0.004505
PT3801   PT        0.363805    0.305060    0.819115     0.004505
PT3802   PT        0.358570    0.344506    0.784736     0.004505
PT3803   PT        0.398677    0.306668    0.784001     0.004505
PT3804   PT        0.396681    0.343701    0.818177     0.004505
PT3805   PT        0.432138    0.305702    0.817171     0.004505
AU3806   AU        0.432584    0.344025    0.784680     0.007504
PT3807   PT        0.467176    0.304902    0.784814     0.004505
AU3808   AU        0.467862    0.343613    0.819191     0.007504
PT3809   PT        0.503309    0.305761    0.818411     0.004505
AU3810   AU        0.504644    0.344432    0.784327     0.007504
AU3811   AU        0.540674    0.306140    0.783647     0.007504
AU3812   AU        0.538861    0.345383    0.816876     0.007504
PT3813   PT        0.574147    0.308486    0.818219     0.004505
PT3814   PT        0.574512    0.346040    0.784125     0.004505
PT3815   PT        0.611044    0.307415    0.783821     0.004505
PT3816   PT        0.609962    0.345271    0.818118     0.004505
AU3817   AU        0.645703    0.345119    0.783970     0.007504
PT3818   PT        0.218533    0.423022    0.782658     0.004505
PT3819   PT        0.254072    0.384460    0.784884     0.004505
PT3820   PT        0.290384    0.385054    0.818968     0.004505
AU3821   AU        0.289023    0.423468    0.782994     0.007504
PT3822   PT        0.323994    0.385476    0.785024     0.004505
AU3823   AU        0.322874    0.422640    0.817695     0.007504
PT3824   PT        0.359914    0.383046    0.816915     0.004505
AU3825   AU        0.359822    0.423200    0.784239     0.007504
PT3826   PT        0.398106    0.382699    0.784180     0.004505
PT3827   PT        0.395089    0.426041    0.819835     0.004505
PT3828   PT        0.434097    0.382716    0.818740     0.004505
AU3829   AU        0.431988    0.422845    0.785099     0.007504
PT3830   PT        0.468444    0.383709    0.784760     0.004505
PT3831   PT        0.468308    0.420467    0.819115     0.004505
PT3832   PT        0.504325    0.383237    0.818406     0.004505
PT3833   PT        0.504397    0.421732    0.786499     0.004505
AU3834   AU        0.540198    0.383251    0.783437     0.007504
PT3835   PT        0.539831    0.419954    0.819540     0.004505
PT3836   PT        0.577106    0.384125    0.818625     0.004505
PT3837   PT        0.575995    0.422959    0.784807     0.004505
PT3838   PT        0.611853    0.385280    0.784323     0.004505
PT3839   PT        0.613483    0.422475    0.817703     0.004505
AU3840   AU        0.646520    0.383824    0.818775     0.007504
AU3841   AU        0.647805    0.421812    0.783963     0.007504
PT3842   PT        0.682335    0.385264    0.784143     0.004505
PT3843   PT        0.719607    0.422298    0.782850     0.004505
AU3844   AU        0.217638    0.501639    0.782817     0.007504
PT3845   PT        0.251902    0.463308    0.782932     0.004505
PT3846   PT        0.285945    0.462524    0.817116     0.004505
PT3847   PT        0.288277    0.501228    0.783808     0.004505
PT3848   PT        0.322637    0.461888    0.784262     0.004505
AU3849   AU        0.323069    0.499977    0.817824     0.007504
PT3850   PT        0.359012    0.462247    0.816324     0.004505
PT3851   PT        0.359897    0.501350    0.784908     0.004505
PT3852   PT        0.394521    0.463276    0.784094     0.004505
PT3853   PT        0.397326    0.499957    0.819419     0.004505
PT3854   PT        0.431363    0.461445    0.817963     0.004505
AU3855   AU        0.432079    0.501047    0.786000     0.007504
PT3856   PT        0.467930    0.461261    0.785559     0.004505
PT3857   PT        0.468083    0.499816    0.819375     0.004505
AU3858   AU        0.502662    0.459233    0.819379     0.007504
PT3859   PT        0.502737    0.500010    0.785379     0.004505
AU3860   AU        0.541694    0.461819    0.786973     0.007504
PT3861   PT        0.541015    0.500253    0.818331     0.004505
PT3862   PT        0.577625    0.462034    0.818783     0.004505
PT3863   PT        0.577556    0.501021    0.783676     0.004505
PT3864   PT        0.612007    0.460722    0.784038     0.004505
PT3865   PT        0.612214    0.501019    0.817063     0.004505
PT3866   PT        0.647226    0.460338    0.818954     0.004505
AU3867   AU        0.647742    0.499021    0.784039     0.007504
PT3868   PT        0.681690    0.460855    0.782332     0.004505
PT3869   PT        0.717054    0.499134    0.783028     0.004505
PT3870   PT        0.252444    0.539176    0.782018     0.004505
AU3871   AU        0.288700    0.540210    0.817998     0.007504
PT3872   PT        0.289304    0.577163    0.783480     0.004505
PT3873   PT        0.324708    0.539985    0.785444     0.004505
PT3874   PT        0.322519    0.577421    0.818387     0.004505
AU3875   AU        0.357880    0.541633    0.818656     0.007504
AU3876   AU        0.359850    0.577388    0.785142     0.007504
PT3877   PT        0.398347    0.541085    0.785629     0.004505
AU3878   AU        0.393032    0.579725    0.819067     0.007504
PT3879   PT        0.432520    0.539996    0.820827     0.004505
PT3880   PT        0.429263    0.580612    0.784197     0.004505
PT3881   PT        0.466959    0.539127    0.785322     0.004505
AU3882   AU        0.466490    0.578349    0.819313     0.007504
PT3883   PT        0.502490    0.538000    0.819342     0.004505
AU3884   AU        0.502375    0.577565    0.787120     0.007504
PT3885   PT        0.538407    0.538913    0.784645     0.004505
PT3886   PT        0.539995    0.576362    0.817582     0.004505
PT3887   PT        0.575294    0.538951    0.816664     0.004505
PT3888   PT        0.574170    0.576452    0.785008     0.004505
AU3889   AU        0.610192    0.539285    0.783918     0.007504
PT3890   PT        0.609702    0.578208    0.817168     0.004505
PT3891   PT        0.645020    0.538975    0.816867     0.004505
AU3892   AU        0.646543    0.578216    0.781981     0.007504
PT3893   PT        0.680415    0.536502    0.782693     0.004505
AU3894   AU        0.288277    0.652770    0.784484     0.007504
PT3895   PT        0.323304    0.614552    0.783676     0.004505
PT3896   PT        0.358358    0.618248    0.817744     0.004505
PT3897   PT        0.359663    0.653373    0.782023     0.004505
AU3898   AU        0.394106    0.616236    0.783775     0.007504
PT3899   PT        0.394105    0.655933    0.817532     0.004505
PT3900   PT        0.431288    0.617941    0.818464     0.004505
PT3901   PT        0.430230    0.654811    0.784206     0.004505
AU3902   AU        0.467031    0.618950    0.784041     0.007504
PT3903   PT        0.469112    0.654857    0.818899     0.004505
PT3904   PT        0.504409    0.617787    0.817442     0.004505
PT3905   PT        0.503282    0.655204    0.783348     0.004505
PT3906   PT        0.538388    0.616635    0.784370     0.004505
PT3907   PT        0.539470    0.653330    0.818921     0.004505
PT3908   PT        0.574527    0.614712    0.817595     0.004505
PT3909   PT        0.574934    0.652894    0.784132     0.004505
PT3910   PT        0.610849    0.614754    0.783244     0.004505
PT3911   PT        0.645351    0.653312    0.783903     0.004505
PT3912   PT        0.393592    0.694216    0.782344     0.004505
PT3913   PT        0.430570    0.730737    0.784036     0.004505
PT3914   PT        0.467251    0.692659    0.782247     0.004505
AU3915   AU        0.502557    0.731533    0.783240     0.007504
PT3916   PT        0.539330    0.692234    0.784026     0.004505
PT3917   PT        0.395880    0.383861    0.850384     0.004505
PT3918   PT        0.468513    0.383190    0.852506     0.004505
PT3919   PT        0.503280    0.421732    0.854324     0.004505
PT3920   PT        0.394216    0.464089    0.853713     0.004505
PT3921   PT        0.431201    0.500086    0.851040     0.004505
PT3922   PT        0.467707    0.464212    0.852149     0.004505
PT3923   PT        0.502893    0.500003    0.851802     0.004505
PT3924   PT        0.535332    0.419239    0.892907     0.004505
PT3925   PT        0.467422    0.534659    0.854960     0.004505
