data_00001
_audit_creation_method   'DISCUS'

_data_chemical_name_common 'Au.cell: Pearson85'

_cell_length_a             53.1089
_cell_length_b             53.1089
_cell_length_c             53.1089
_cell_angle_alpha     90.0000
_cell_angle_beta      90.0000
_cell_angle_gamma     90.0000

_symmetry_space_group_name_H-M   'P1              '

loop_
_atom_site_label
_atom_site_symbol
_atom_site_fract_x
_atom_site_fract_y
_atom_site_fract_z
_atom_site_u_iso_or_equiv
AG1   AG        0.447254    0.272708    0.029176     0.008887
AG2   AG        0.284656    0.316091    0.038342     0.008887
AG3   AG        0.327878    0.278014    0.039820     0.008887
AG4   AG        0.367785    0.321622    0.047282     0.008887
AG5   AG        0.392758    0.275675    0.034275     0.008887
AG6   AG        0.426846    0.319842    0.042046     0.008887
AG7   AG        0.481276    0.319673    0.038184     0.008887
AG8   AG        0.546105    0.321920    0.043862     0.008887
AG9   AG        0.583718    0.281464    0.037663     0.008887
AG10   AG        0.600596    0.336375    0.032400     0.008887
AG11   AG        0.320240    0.415424    0.029148     0.008887
AG12   AG        0.324396    0.355343    0.040500     0.008887
AG13   AG        0.365040    0.408707    0.060553     0.008887
AG14   AG        0.406027    0.369708    0.060017     0.008887
AG15   AG        0.408608    0.409558    0.017793     0.008887
AG16   AG        0.452021    0.368044    0.028914     0.008887
AG17   AG        0.447311    0.415634    0.056689     0.008887
AG18   AG        0.504137    0.369125    0.063282     0.008887
AG19   AG        0.488925    0.408115    0.017253     0.008887
AG20   AG        0.527129    0.419361    0.051872     0.008887
AG21   AG        0.560165    0.379789    0.039125     0.008887
AG22   AG        0.627059    0.387244    0.033643     0.008887
AG23   AG        0.275577    0.452983    0.035165     0.008887
AG24   AG        0.281534    0.512532    0.030935     0.008887
AG25   AG        0.320693    0.477388    0.035295     0.008887
AG26   AG        0.364717    0.443239    0.020222     0.008887
AG27   AG        0.372687    0.494724    0.050004     0.008887
AG28   AG        0.411219    0.454340    0.051174     0.008887
AG29   AG        0.413079    0.493438    0.008939     0.008887
AG30   AG        0.450720    0.452976    0.011249     0.008887
AG31   AG        0.449370    0.495325    0.054386     0.008887
AG32   AG        0.488170    0.457741    0.053574     0.008887
AG33   AG        0.506090    0.466234    0.001193     0.008887
AG34   AG        0.549594    0.425937    0.001856     0.008887
AG35   AG        0.544839    0.466001    0.044206     0.008887
AG36   AG        0.583145    0.421474    0.043864     0.008887
AG37   AG        0.595956    0.476548    0.033867     0.008887
AG38   AG        0.640627    0.440633    0.033196     0.008887
AG39   AG        0.287875    0.572106    0.031397     0.008887
AG40   AG        0.330904    0.535302    0.040262     0.008887
AG41   AG        0.370200    0.572239    0.036218     0.008887
AG42   AG        0.413620    0.537721    0.047973     0.008887
AG43   AG        0.467089    0.507380    0.000769     0.008887
AG44   AG        0.469852    0.545121    0.041549     0.008887
AG45   AG        0.506060    0.505503    0.043377     0.008887
AG46   AG        0.515892    0.558968    0.034242     0.008887
AG47   AG        0.557939    0.517960    0.037777     0.008887
AG48   AG        0.595129    0.558872    0.037055     0.008887
AG49   AG        0.325334    0.616707    0.032066     0.008887
AG50   AG        0.422637    0.586339    0.025752     0.008887
AG51   AG        0.475914    0.597282    0.035266     0.008887
AG52   AG        0.515257    0.634078    0.036724     0.008887
AG53   AG        0.555896    0.595284    0.036745     0.008887
AG54   AG        0.318195    0.197692    0.118610     0.008887
AG55   AG        0.381070    0.192535    0.112549     0.008887
AG56   AG        0.405096    0.143936    0.096970     0.008887
AG57   AG        0.444014    0.179852    0.098826     0.008887
AG58   AG        0.488586    0.149531    0.103844     0.008887
AG59   AG        0.523884    0.189144    0.111848     0.008887
AG60   AG        0.594472    0.196432    0.119059     0.008887
AG61   AG        0.240467    0.272668    0.112687     0.008887
AG62   AG        0.278797    0.231675    0.111331     0.008887
AG63   AG        0.321517    0.276909    0.116178     0.008887
AG64   AG        0.355516    0.237212    0.121099     0.008887
AG65   AG        0.325658    0.236622    0.075808     0.008887
AG66   AG        0.385887    0.233766    0.071375     0.008887
AG67   AG        0.394640    0.274762    0.125725     0.008887
AG68   AG        0.423747    0.228643    0.112785     0.008887
AG69   AG        0.424433    0.277372    0.080253     0.008887
AG70   AG        0.444550    0.223118    0.063526     0.008887
AG71   AG        0.457955    0.273332    0.125459     0.008887
AG72   AG        0.476839    0.224199    0.107238     0.008887
AG73   AG        0.482000    0.275472    0.073802     0.008887
AG74   AG        0.520843    0.233291    0.072885     0.008887
AG75   AG        0.511973    0.270583    0.117655     0.008887
AG76   AG        0.552969    0.234844    0.116796     0.008887
AG77   AG        0.588228    0.242108    0.074309     0.008887
AG78   AG        0.587406    0.274796    0.118681     0.008887
AG79   AG        0.632999    0.239528    0.117909     0.008887
AG80   AG        0.669993    0.278697    0.117544     0.008887
AG81   AG        0.197735    0.312673    0.111448     0.008887
AG82   AG        0.237327    0.348849    0.115288     0.008887
AG83   AG        0.280699    0.312278    0.116640     0.008887
AG84   AG        0.242292    0.312322    0.074785     0.008887
AG85   AG        0.278796    0.268715    0.071387     0.008887
AG86   AG        0.314098    0.350938    0.123756     0.008887
AG87   AG        0.354291    0.315195    0.124605     0.008887
AG88   AG        0.323258    0.317940    0.080496     0.008887
AG89   AG        0.366515    0.278995    0.081472     0.008887
CU90   CU        0.390059    0.349220    0.137054     0.006663
AG91   AG        0.423113    0.313736    0.136802     0.008887
AG92   AG        0.399556    0.321552    0.089661     0.008887
AG93   AG        0.455271    0.326463    0.090577     0.008887
CU94   CU        0.455014    0.353501    0.135519     0.006663
AG95   AG        0.485567    0.313550    0.134422     0.008887
AG96   AG        0.510629    0.319961    0.087834     0.008887
AG97   AG        0.544160    0.278225    0.076635     0.008887
CU98   CU        0.520355    0.347797    0.134600     0.006663
AG99   AG        0.549428    0.311190    0.125075     0.008887
AG100   AG        0.589648    0.319007    0.081865     0.008887
AG101   AG        0.628742    0.283549    0.075384     0.008887
AG102   AG        0.588468    0.348781    0.129960     0.008887
AG103   AG        0.629659    0.313904    0.121550     0.008887
AG104   AG        0.640233    0.335474    0.071990     0.008887
AG105   AG        0.672783    0.345485    0.115089     0.008887
AG106   AG        0.716570    0.309980    0.112363     0.008887
AG107   AG        0.154673    0.415419    0.100259     0.008887
AG108   AG        0.186622    0.367488    0.096883     0.008887
AG109   AG        0.232901    0.363245    0.063093     0.008887
AG110   AG        0.224959    0.405535    0.100134     0.008887
AG111   AG        0.274091    0.386345    0.117648     0.008887
AG112   AG        0.266932    0.406585    0.066387     0.008887
AG113   AG        0.281454    0.352478    0.077571     0.008887
AG114   AG        0.318410    0.419700    0.126071     0.008887
CU115   CU        0.352642    0.380999    0.138554     0.006663
AG116   AG        0.316294    0.392738    0.080433     0.008887
AG117   AG        0.362225    0.358610    0.092877     0.008887
CU118   CU        0.385847    0.414738    0.140180     0.006663
CU119   CU        0.418688    0.381877    0.131775     0.006663
AG120   AG        0.410484    0.417040    0.094619     0.008887
AG121   AG        0.451917    0.375700    0.092614     0.008887
CU122   CU        0.454660    0.416234    0.134503     0.006663
CU123   CU        0.488304    0.384965    0.135161     0.006663
AG124   AG        0.490969    0.413923    0.092145     0.008887
AG125   AG        0.549326    0.355302    0.090104     0.008887
CU126   CU        0.523276    0.418891    0.134295     0.006663
CU127   CU        0.551559    0.384382    0.137897     0.006663
AG128   AG        0.558619    0.412055    0.092559     0.008887
AG129   AG        0.597984    0.374973    0.077991     0.008887
AG130   AG        0.596184    0.410747    0.133060     0.008887
AG131   AG        0.631191    0.376179    0.118635     0.008887
AG132   AG        0.662957    0.388225    0.077020     0.008887
AG133   AG        0.703873    0.352029    0.071087     0.008887
AG134   AG        0.702350    0.390959    0.113286     0.008887
AG135   AG        0.740489    0.355156    0.107245     0.008887
AG136   AG        0.754923    0.409894    0.105225     0.008887
AG137   AG        0.145609    0.465425    0.096254     0.008887
AG138   AG        0.195682    0.447923    0.110384     0.008887
AG139   AG        0.235123    0.453145    0.071687     0.008887
AG140   AG        0.239905    0.485430    0.118092     0.008887
AG141   AG        0.271299    0.436594    0.111104     0.008887
AG142   AG        0.280208    0.483281    0.081734     0.008887
AG143   AG        0.321620    0.445646    0.077135     0.008887
AG144   AG        0.313765    0.469287    0.124519     0.008887
CU145   CU        0.356542    0.450650    0.138612     0.006663
AG146   AG        0.329228    0.502865    0.082739     0.008887
AG147   AG        0.367260    0.454087    0.089084     0.008887
CU148   CU        0.389370    0.485653    0.136270     0.006663
CU149   CU        0.419713    0.450321    0.133651     0.006663
AG150   AG        0.409602    0.491641    0.090398     0.008887
AG151   AG        0.452342    0.455420    0.092725     0.008887
CU152   CU        0.456958    0.488646    0.133515     0.006663
CU153   CU        0.488648    0.451521    0.131501     0.006663
AG154   AG        0.490021    0.496154    0.093168     0.008887
AG155   AG        0.525851    0.454304    0.095344     0.008887
CU156   CU        0.526875    0.484386    0.135358     0.006663
CU157   CU        0.560781    0.453056    0.135885     0.006663
AG158   AG        0.579583    0.460833    0.085485     0.008887
AG159   AG        0.620896    0.421378    0.084605     0.008887
AG160   AG        0.612393    0.458598    0.126339     0.008887
AG161   AG        0.656792    0.423049    0.126013     0.008887
AG162   AG        0.630706    0.474919    0.076182     0.008887
AG163   AG        0.674957    0.445045    0.075488     0.008887
AG164   AG        0.669571    0.478022    0.117272     0.008887
AG165   AG        0.711927    0.444557    0.115086     0.008887
AG166   AG        0.751170    0.479774    0.110951     0.008887
AG167   AG        0.192317    0.504733    0.099736     0.008887
AG168   AG        0.232288    0.506302    0.060750     0.008887
AG169   AG        0.238392    0.539345    0.105262     0.008887
AG170   AG        0.282778    0.515012    0.127858     0.008887
AG171   AG        0.246352    0.577711    0.069458     0.008887
AG172   AG        0.287807    0.539461    0.079408     0.008887
AG173   AG        0.326104    0.551458    0.119825     0.008887
CU174   CU        0.350780    0.506656    0.129651     0.006663
AG175   AG        0.329236    0.579151    0.073001     0.008887
AG176   AG        0.368710    0.538326    0.080167     0.008887
CU177   CU        0.380016    0.540349    0.130316     0.006663
CU178   CU        0.421645    0.519337    0.138402     0.006663
AG179   AG        0.404938    0.580375    0.079161     0.008887
AG180   AG        0.446167    0.534809    0.090599     0.008887
CU181   CU        0.455622    0.550731    0.140544     0.006663
CU182   CU        0.493449    0.519262    0.136736     0.006663
AG183   AG        0.499000    0.542950    0.083861     0.008887
AG184   AG        0.544392    0.503322    0.088572     0.008887
CU185   CU        0.538880    0.540783    0.130115     0.006663
CU186   CU        0.575215    0.498261    0.128645     0.006663
AG187   AG        0.553277    0.554522    0.082340     0.008887
AG188   AG        0.591590    0.515816    0.080359     0.008887
AG189   AG        0.586118    0.548584    0.126599     0.008887
AG190   AG        0.627119    0.513007    0.121158     0.008887
AG191   AG        0.629238    0.558529    0.076421     0.008887
AG192   AG        0.666324    0.516527    0.078044     0.008887
AG193   AG        0.665477    0.553189    0.117555     0.008887
AG194   AG        0.710416    0.519876    0.114324     0.008887
AG195   AG        0.200731    0.580107    0.103337     0.008887
AG196   AG        0.241071    0.620180    0.107765     0.008887
AG197   AG        0.281872    0.582422    0.109784     0.008887
AG198   AG        0.285220    0.617126    0.067405     0.008887
AG199   AG        0.321720    0.620735    0.109866     0.008887
AG200   AG        0.364249    0.588167    0.116480     0.008887
AG201   AG        0.323830    0.657944    0.069476     0.008887
AG202   AG        0.363718    0.618205    0.069797     0.008887
AG203   AG        0.402100    0.629462    0.115070     0.008887
AG204   AG        0.421248    0.582954    0.130599     0.008887
AG205   AG        0.433956    0.621623    0.068193     0.008887
AG206   AG        0.464307    0.582437    0.088729     0.008887
AG207   AG        0.456033    0.622655    0.125095     0.008887
AG208   AG        0.499431    0.577726    0.128111     0.008887
AG209   AG        0.481413    0.635050    0.079169     0.008887
AG210   AG        0.516540    0.593806    0.074289     0.008887
AG211   AG        0.513241    0.629800    0.121951     0.008887
AG212   AG        0.547053    0.589239    0.122802     0.008887
AG213   AG        0.553794    0.634605    0.075113     0.008887
AG214   AG        0.587388    0.593855    0.079639     0.008887
AG215   AG        0.589076    0.628354    0.120833     0.008887
AG216   AG        0.627819    0.589521    0.120165     0.008887
AG217   AG        0.671449    0.631125    0.115369     0.008887
AG218   AG        0.709594    0.589078    0.121724     0.008887
AG219   AG        0.279369    0.657499    0.108670     0.008887
AG220   AG        0.318153    0.698861    0.107971     0.008887
AG221   AG        0.358105    0.661213    0.110378     0.008887
AG222   AG        0.392792    0.660621    0.070348     0.008887
AG223   AG        0.389964    0.706223    0.108146     0.008887
AG224   AG        0.434151    0.671452    0.107995     0.008887
AG225   AG        0.457014    0.678852    0.061615     0.008887
AG226   AG        0.459344    0.719915    0.098363     0.008887
AG227   AG        0.481039    0.673958    0.116280     0.008887
AG228   AG        0.517586    0.676246    0.075108     0.008887
AG229   AG        0.522050    0.714721    0.113782     0.008887
AG230   AG        0.553881    0.669944    0.119062     0.008887
AG231   AG        0.592080    0.713329    0.116464     0.008887
AG232   AG        0.630880    0.669403    0.117676     0.008887
AG233   AG        0.417708    0.754040    0.104527     0.008887
AG234   AG        0.496284    0.764904    0.102196     0.008887
AG235   AG        0.320025    0.117470    0.191790     0.008887
AG236   AG        0.384248    0.113437    0.189265     0.008887
AG237   AG        0.400070    0.102712    0.134500     0.008887
AG238   AG        0.446716    0.096553    0.173213     0.008887
AG239   AG        0.494292    0.105032    0.142872     0.008887
AG240   AG        0.520857    0.115091    0.189940     0.008887
AG241   AG        0.592316    0.115646    0.189123     0.008887
AG242   AG        0.237003    0.189326    0.189298     0.008887
AG243   AG        0.277941    0.154350    0.192998     0.008887
AG244   AG        0.276863    0.192907    0.156769     0.008887
AG245   AG        0.321291    0.158892    0.153239     0.008887
AG246   AG        0.316219    0.195623    0.198662     0.008887
AG247   AG        0.355620    0.159076    0.196460     0.008887
AG248   AG        0.356348    0.199454    0.162185     0.008887
AG249   AG        0.386003    0.153754    0.148066     0.008887
AG250   AG        0.393667    0.198083    0.199974     0.008887
AG251   AG        0.424616    0.150063    0.187574     0.008887
AG252   AG        0.424425    0.192497    0.152867     0.008887
AG253   AG        0.448694    0.137303    0.137961     0.008887
AG254   AG        0.455694    0.198789    0.196287     0.008887
AG255   AG        0.474927    0.146751    0.186059     0.008887
AG256   AG        0.475781    0.186810    0.145387     0.008887
AG257   AG        0.518385    0.155769    0.152047     0.008887
AG258   AG        0.522002    0.203509    0.200010     0.008887
AG259   AG        0.555111    0.156853    0.192765     0.008887
AG260   AG        0.552822    0.199065    0.157027     0.008887
AG261   AG        0.597365    0.154219    0.154417     0.008887
AG262   AG        0.589136    0.195957    0.197999     0.008887
AG263   AG        0.629792    0.158926    0.198330     0.008887
AG264   AG        0.633901    0.197270    0.160732     0.008887
AG265   AG        0.671263    0.195471    0.198502     0.008887
AG266   AG        0.157097    0.269893    0.191343     0.008887
AG267   AG        0.196544    0.231865    0.190566     0.008887
AG268   AG        0.198037    0.273475    0.153532     0.008887
AG269   AG        0.236167    0.226437    0.149415     0.008887
AG270   AG        0.235981    0.269441    0.194272     0.008887
AG271   AG        0.275977    0.231324    0.196926     0.008887
AG272   AG        0.273865    0.268922    0.155042     0.008887
AG273   AG        0.312163    0.234744    0.158639     0.008887
CU274   CU        0.313808    0.271338    0.198791     0.006663
CU275   CU        0.354009    0.237920    0.198601     0.006663
AG276   AG        0.352411    0.270990    0.161141     0.008887
AG277   AG        0.394801    0.237211    0.161692     0.008887
CU278   CU        0.386471    0.274400    0.201204     0.006663
CU279   CU        0.421866    0.240266    0.206902     0.006663
CU280   CU        0.422449    0.278697    0.169382     0.006663
AG281   AG        0.453053    0.238434    0.161975     0.008887
CU282   CU        0.453610    0.275317    0.204589     0.006663
CU283   CU        0.485682    0.239329    0.202055     0.006663
CU284   CU        0.486259    0.276660    0.169710     0.006663
AG285   AG        0.506155    0.232877    0.155999     0.008887
CU286   CU        0.523366    0.274593    0.205820     0.006663
CU287   CU        0.558833    0.238774    0.205493     0.006663
AG288   AG        0.552464    0.269142    0.164702     0.008887
AG289   AG        0.592165    0.233933    0.156932     0.008887
CU290   CU        0.596513    0.271177    0.202979     0.006663
AG291   AG        0.631220    0.234344    0.199196     0.008887
AG292   AG        0.635493    0.273103    0.159723     0.008887
AG293   AG        0.676219    0.233534    0.151296     0.008887
AG294   AG        0.668533    0.275912    0.200091     0.008887
AG295   AG        0.706678    0.238741    0.196882     0.008887
AG296   AG        0.709247    0.275025    0.155496     0.008887
AG297   AG        0.752119    0.270553    0.191859     0.008887
AG298   AG        0.116911    0.307939    0.191555     0.008887
AG299   AG        0.157667    0.310023    0.151188     0.008887
AG300   AG        0.154669    0.347849    0.190878     0.008887
AG301   AG        0.197164    0.311592    0.194691     0.008887
AG302   AG        0.195609    0.351860    0.153391     0.008887
AG303   AG        0.235856    0.310857    0.157076     0.008887
CU304   CU        0.239292    0.343523    0.197385     0.006663
CU305   CU        0.275549    0.307434    0.197258     0.006663
AG306   AG        0.275451    0.347469    0.158119     0.008887
AG307   AG        0.314715    0.308970    0.163335     0.008887
CU308   CU        0.309744    0.346286    0.202563     0.006663
CU309   CU        0.351755    0.305260    0.202296     0.006663
CU310   CU        0.350029    0.344842    0.171348     0.006663
CU311   CU        0.384854    0.312630    0.165786     0.006663
CU312   CU        0.381257    0.341049    0.206076     0.006663
CU313   CU        0.417753    0.311531    0.206265     0.006663
CU314   CU        0.419877    0.348075    0.172166     0.006663
CU315   CU        0.454541    0.315954    0.175070     0.006663
CU316   CU        0.453407    0.348751    0.209378     0.006663
CU317   CU        0.489129    0.311016    0.205370     0.006663
CU318   CU        0.487232    0.348204    0.175777     0.006663
CU319   CU        0.521898    0.309832    0.171660     0.006663
CU320   CU        0.523033    0.343386    0.206674     0.006663
CU321   CU        0.556581    0.310132    0.205866     0.006663
CU322   CU        0.557098    0.346466    0.170992     0.006663
AG323   AG        0.589178    0.308731    0.165228     0.008887
CU324   CU        0.593662    0.345730    0.206134     0.006663
CU325   CU        0.627738    0.309199    0.205065     0.006663
AG326   AG        0.629341    0.346274    0.166042     0.008887
AG327   AG        0.671443    0.314981    0.158908     0.008887
CU328   CU        0.664980    0.345934    0.204129     0.006663
AG329   AG        0.709234    0.310974    0.196878     0.008887
AG330   AG        0.713995    0.347559    0.154600     0.008887
AG331   AG        0.754100    0.309378    0.154520     0.008887
AG332   AG        0.748930    0.347403    0.195713     0.008887
AG333   AG        0.791296    0.311271    0.193280     0.008887
AG334   AG        0.107264    0.377616    0.185125     0.008887
AG335   AG        0.114157    0.416213    0.145673     0.008887
AG336   AG        0.146588    0.370771    0.138499     0.008887
AG337   AG        0.156142    0.408736    0.185614     0.008887
AG338   AG        0.205438    0.379754    0.195988     0.008887
AG339   AG        0.188583    0.401357    0.142500     0.008887
AG340   AG        0.237683    0.386349    0.155097     0.008887
CU341   CU        0.244669    0.414661    0.198772     0.006663
CU342   CU        0.274837    0.376986    0.198521     0.006663
CU343   CU        0.280574    0.413212    0.163825     0.006663
CU344   CU        0.314760    0.382092    0.164788     0.006663
CU345   CU        0.309412    0.413254    0.201623     0.006663
CU346   CU        0.345111    0.378844    0.206310     0.006663
CU347   CU        0.347551    0.415241    0.173509     0.006663
CU348   CU        0.382448    0.382337    0.174541     0.006663
CU349   CU        0.380402    0.414989    0.207882     0.006663
CU350   CU        0.416658    0.379352    0.209242     0.006663
CU351   CU        0.421277    0.414996    0.174230     0.006663
CU352   CU        0.455694    0.382993    0.169719     0.006663
CU353   CU        0.455044    0.417955    0.206194     0.006663
CU354   CU        0.488719    0.382700    0.207549     0.006663
CU355   CU        0.489856    0.419818    0.169270     0.006663
CU356   CU        0.521891    0.383330    0.173670     0.006663
CU357   CU        0.523247    0.416395    0.207642     0.006663
CU358   CU        0.557185    0.381546    0.206822     0.006663
CU359   CU        0.560132    0.416380    0.173130     0.006663
CU360   CU        0.594664    0.381346    0.170893     0.006663
CU361   CU        0.594735    0.417513    0.205765     0.006663
CU362   CU        0.631288    0.377862    0.206546     0.006663
CU363   CU        0.630492    0.416841    0.172840     0.006663
AG364   AG        0.665545    0.379276    0.157829     0.008887
CU365   CU        0.666428    0.412643    0.203581     0.006663
AG366   AG        0.706214    0.378397    0.196860     0.008887
AG367   AG        0.704962    0.422258    0.163919     0.008887
AG368   AG        0.746087    0.390422    0.155355     0.008887
AG369   AG        0.742958    0.419776    0.200724     0.008887
AG370   AG        0.788603    0.386560    0.194649     0.008887
AG371   AG        0.799232    0.413639    0.145142     0.008887
AG372   AG        0.121178    0.451150    0.187278     0.008887
AG373   AG        0.105462    0.467535    0.137658     0.008887
AG374   AG        0.156366    0.446296    0.146024     0.008887
AG375   AG        0.164256    0.485199    0.190862     0.008887
AG376   AG        0.201466    0.443375    0.186067     0.008887
AG377   AG        0.201785    0.485021    0.154382     0.008887
AG378   AG        0.242506    0.443904    0.154300     0.008887
CU379   CU        0.241853    0.480715    0.194556     0.006663
CU380   CU        0.277339    0.451151    0.199999     0.006663
CU381   CU        0.276543    0.481216    0.164067     0.006663
CU382   CU        0.312955    0.446245    0.169391     0.006663
CU383   CU        0.312261    0.485398    0.204834     0.006663
CU384   CU        0.348448    0.452629    0.204141     0.006663
CU385   CU        0.349922    0.484751    0.171500     0.006663
CU386   CU        0.387733    0.450522    0.172598     0.006663
CU387   CU        0.383093    0.484002    0.206117     0.006663
CU388   CU        0.420290    0.450772    0.204473     0.006663
CU389   CU        0.420000    0.486815    0.171429     0.006663
CU390   CU        0.454168    0.451598    0.168660     0.006663
CU391   CU        0.453913    0.485362    0.209916     0.006663
CU392   CU        0.487761    0.454296    0.206793     0.006663
CU393   CU        0.489362    0.486418    0.171533     0.006663
CU394   CU        0.522206    0.452015    0.175369     0.006663
CU395   CU        0.526969    0.486566    0.206155     0.006663
CU396   CU        0.557431    0.449665    0.207819     0.006663
CU397   CU        0.558928    0.482132    0.173691     0.006663
CU398   CU        0.594076    0.450413    0.172928     0.006663
CU399   CU        0.592939    0.485261    0.207375     0.006663
CU400   CU        0.629108    0.452789    0.205583     0.006663
CU401   CU        0.625866    0.484413    0.165360     0.006663
AG402   AG        0.662327    0.453117    0.167284     0.008887
CU403   CU        0.661799    0.487043    0.204875     0.006663
AG404   AG        0.702076    0.456434    0.202496     0.008887
AG405   AG        0.710403    0.481894    0.154440     0.008887
AG406   AG        0.752273    0.442713    0.153300     0.008887
AG407   AG        0.750914    0.484175    0.189874     0.008887
AG408   AG        0.790980    0.447420    0.193728     0.008887
AG409   AG        0.792179    0.482768    0.153056     0.008887
AG410   AG        0.109949    0.504181    0.179782     0.008887
AG411   AG        0.151788    0.501211    0.141851     0.008887
AG412   AG        0.153617    0.535946    0.181608     0.008887
AG413   AG        0.202661    0.520954    0.195785     0.008887
AG414   AG        0.195356    0.539131    0.141730     0.008887
AG415   AG        0.243077    0.522439    0.162377     0.008887
CU416   CU        0.244066    0.558078    0.201254     0.006663
CU417   CU        0.276026    0.516784    0.202393     0.006663
AG418   AG        0.284656    0.556458    0.162922     0.008887
CU419   CU        0.315098    0.514463    0.170323     0.006663
CU420   CU        0.311559    0.555875    0.203097     0.006663
CU421   CU        0.346272    0.521169    0.205495     0.006663
CU422   CU        0.348439    0.551155    0.168024     0.006663
CU423   CU        0.383838    0.518231    0.170392     0.006663
CU424   CU        0.382252    0.553322    0.204817     0.006663
CU425   CU        0.418120    0.518708    0.206082     0.006663
CU426   CU        0.420739    0.552601    0.172150     0.006663
CU427   CU        0.454712    0.518817    0.174155     0.006663
CU428   CU        0.456187    0.557608    0.205273     0.006663
CU429   CU        0.490995    0.518606    0.206783     0.006663
CU430   CU        0.492484    0.552037    0.170865     0.006663
CU431   CU        0.528498    0.517781    0.170510     0.006663
CU432   CU        0.524558    0.557586    0.208753     0.006663
CU433   CU        0.557311    0.523313    0.210764     0.006663
CU434   CU        0.557522    0.554621    0.172619     0.006663
CU435   CU        0.591502    0.519534    0.174170     0.006663
CU436   CU        0.594296    0.559268    0.204423     0.006663
CU437   CU        0.628301    0.520713    0.205502     0.006663
AG438   AG        0.629900    0.550474    0.158704     0.008887
AG439   AG        0.666825    0.515605    0.158862     0.008887
CU440   CU        0.670327    0.554907    0.195876     0.006663
AG441   AG        0.704833    0.513437    0.199558     0.008887
AG442   AG        0.708185    0.550757    0.159959     0.008887
AG443   AG        0.750681    0.521470    0.148013     0.008887
AG444   AG        0.748049    0.552555    0.196285     0.008887
AG445   AG        0.794775    0.526521    0.185380     0.008887
AG446   AG        0.113978    0.580467    0.177967     0.008887
AG447   AG        0.158778    0.574984    0.141595     0.008887
AG448   AG        0.158449    0.614870    0.181163     0.008887
AG449   AG        0.199573    0.571960    0.185189     0.008887
AG450   AG        0.198327    0.620559    0.141644     0.008887
AG451   AG        0.237847    0.580291    0.146253     0.008887
AG452   AG        0.235566    0.612881    0.189120     0.008887
CU453   CU        0.281241    0.593224    0.200918     0.006663
AG454   AG        0.275803    0.619258    0.149596     0.008887
AG455   AG        0.321711    0.594073    0.153932     0.008887
CU456   CU        0.316562    0.623207    0.194553     0.006663
CU457   CU        0.346720    0.588300    0.200527     0.006663
AG458   AG        0.365707    0.632043    0.156555     0.008887
CU459   CU        0.384476    0.585783    0.167073     0.006663
CU460   CU        0.383587    0.625307    0.201965     0.006663
CU461   CU        0.419513    0.588431    0.205261     0.006663
CU462   CU        0.422998    0.619869    0.169273     0.006663
CU463   CU        0.457914    0.589598    0.169447     0.006663
CU464   CU        0.455685    0.627486    0.203553     0.006663
CU465   CU        0.489267    0.591021    0.207970     0.006663
CU466   CU        0.489476    0.622303    0.164056     0.006663
CU467   CU        0.522574    0.591702    0.171798     0.006663
CU468   CU        0.523414    0.629197    0.201872     0.006663
CU469   CU        0.559373    0.595415    0.205117     0.006663
AG470   AG        0.554583    0.628280    0.160272     0.008887
AG471   AG        0.590866    0.590021    0.164496     0.008887
CU472   CU        0.593132    0.631644    0.197107     0.006663
CU473   CU        0.628851    0.592062    0.200178     0.006663
AG474   AG        0.630005    0.627587    0.161416     0.008887
AG475   AG        0.666355    0.590083    0.159877     0.008887
AG476   AG        0.667116    0.629803    0.199566     0.008887
AG477   AG        0.708826    0.592558    0.199795     0.008887
AG478   AG        0.704347    0.629869    0.157858     0.008887
AG479   AG        0.747249    0.593457    0.156862     0.008887
AG480   AG        0.750012    0.629376    0.195154     0.008887
AG481   AG        0.787681    0.590481    0.201365     0.008887
AG482   AG        0.199958    0.653644    0.188392     0.008887
AG483   AG        0.236689    0.658252    0.147449     0.008887
AG484   AG        0.237853    0.694077    0.190076     0.008887
AG485   AG        0.273588    0.656203    0.189040     0.008887
AG486   AG        0.276471    0.697408    0.147239     0.008887
AG487   AG        0.319624    0.658015    0.149050     0.008887
AG488   AG        0.312475    0.699527    0.188289     0.008887
CU489   CU        0.349831    0.661880    0.197806     0.006663
AG490   AG        0.354536    0.698604    0.151214     0.008887
AG491   AG        0.405129    0.667571    0.154667     0.008887
AG492   AG        0.387680    0.699342    0.194206     0.008887
CU493   CU        0.418636    0.657590    0.201151     0.006663
AG494   AG        0.433661    0.711933    0.146486     0.008887
AG495   AG        0.458138    0.662523    0.165732     0.008887
AG496   AG        0.449920    0.699157    0.200129     0.008887
CU497   CU        0.486076    0.666357    0.203623     0.006663
AG498   AG        0.483582    0.711409    0.152369     0.008887
AG499   AG        0.516248    0.671421    0.157264     0.008887
AG500   AG        0.522673    0.703960    0.199664     0.008887
CU501   CU        0.555447    0.662361    0.201426     0.006663
AG502   AG        0.555522    0.707975    0.155703     0.008887
AG503   AG        0.590717    0.668660    0.157862     0.008887
AG504   AG        0.589214    0.708015    0.196390     0.008887
AG505   AG        0.628429    0.669922    0.198253     0.008887
AG506   AG        0.628418    0.709480    0.157720     0.008887
AG507   AG        0.668007    0.670332    0.157384     0.008887
AG508   AG        0.668067    0.708482    0.195935     0.008887
AG509   AG        0.711981    0.669202    0.196511     0.008887
AG510   AG        0.274114    0.739976    0.182689     0.008887
AG511   AG        0.317339    0.740735    0.146214     0.008887
AG512   AG        0.310786    0.776709    0.188157     0.008887
AG513   AG        0.349574    0.739147    0.191000     0.008887
AG514   AG        0.382446    0.744667    0.145714     0.008887
AG515   AG        0.358978    0.788084    0.172328     0.008887
AG516   AG        0.420881    0.747370    0.186443     0.008887
AG517   AG        0.412596    0.788898    0.147969     0.008887
AG518   AG        0.461553    0.758075    0.140487     0.008887
AG519   AG        0.454803    0.792180    0.184398     0.008887
AG520   AG        0.480455    0.745475    0.195834     0.008887
AG521   AG        0.493008    0.803364    0.144767     0.008887
AG522   AG        0.522962    0.753573    0.149077     0.008887
AG523   AG        0.516194    0.787957    0.190785     0.008887
AG524   AG        0.555683    0.748529    0.191743     0.008887
AG525   AG        0.593357    0.754931    0.150957     0.008887
AG526   AG        0.591676    0.792363    0.192599     0.008887
AG527   AG        0.626491    0.746992    0.198542     0.008887
AG528   AG        0.448996    0.022753    0.258627     0.008887
AG529   AG        0.241676    0.109784    0.275051     0.008887
AG530   AG        0.278773    0.112535    0.232904     0.008887
AG531   AG        0.316584    0.117732    0.273026     0.008887
AG532   AG        0.326755    0.076199    0.238113     0.008887
AG533   AG        0.359017    0.120918    0.233492     0.008887
AG534   AG        0.387267    0.071922    0.227077     0.008887
AG535   AG        0.399552    0.119299    0.269950     0.008887
AG536   AG        0.425663    0.071382    0.267882     0.008887
AG537   AG        0.426813    0.112564    0.224631     0.008887
AG538   AG        0.447451    0.059898    0.217400     0.008887
AG539   AG        0.457045    0.118938    0.269299     0.008887
AG540   AG        0.482151    0.067665    0.262352     0.008887
AG541   AG        0.481119    0.102718    0.221971     0.008887
AG542   AG        0.527948    0.068016    0.224325     0.008887
AG543   AG        0.510783    0.116196    0.262270     0.008887
AG544   AG        0.557805    0.076640    0.267717     0.008887
AG545   AG        0.555200    0.117333    0.229826     0.008887
AG546   AG        0.592617    0.116560    0.273920     0.008887
AG547   AG        0.630636    0.116241    0.232881     0.008887
AG548   AG        0.667394    0.113632    0.278888     0.008887
AG549   AG        0.161657    0.188882    0.266787     0.008887
AG550   AG        0.198563    0.150850    0.270621     0.008887
AG551   AG        0.197255    0.191819    0.227626     0.008887
AG552   AG        0.240104    0.152867    0.232752     0.008887
AG553   AG        0.235807    0.190682    0.268865     0.008887
AG554   AG        0.274397    0.152123    0.273484     0.008887
AG555   AG        0.276548    0.194086    0.233827     0.008887
AG556   AG        0.315309    0.152356    0.233431     0.008887
CU557   CU        0.318027    0.192630    0.266972     0.006663
AG558   AG        0.356801    0.156871    0.270949     0.008887
CU559   CU        0.354945    0.196462    0.233795     0.006663
AG560   AG        0.397923    0.157928    0.232960     0.008887
CU561   CU        0.389229    0.200284    0.273283     0.006663
CU562   CU        0.425960    0.168696    0.277449     0.006663
CU563   CU        0.425809    0.201732    0.239688     0.006663
AG564   AG        0.457171    0.163706    0.237216     0.008887
CU565   CU        0.455674    0.207929    0.275204     0.006663
CU566   CU        0.486548    0.163364    0.275612     0.006663
CU567   CU        0.486218    0.202290    0.240175     0.006663
AG568   AG        0.508649    0.158835    0.228242     0.008887
CU569   CU        0.522106    0.207144    0.272593     0.006663
AG570   AG        0.548545    0.163240    0.268116     0.008887
CU571   CU        0.555467    0.199918    0.237740     0.006663
AG572   AG        0.592498    0.158842    0.237570     0.008887
CU573   CU        0.596088    0.200930    0.275220     0.006663
AG574   AG        0.634124    0.157441    0.272304     0.008887
AG575   AG        0.630540    0.196158    0.238603     0.008887
AG576   AG        0.671966    0.153511    0.234769     0.008887
AG577   AG        0.667633    0.195806    0.278709     0.008887
AG578   AG        0.708602    0.156551    0.278758     0.008887
AG579   AG        0.711198    0.196660    0.236146     0.008887
AG580   AG        0.748136    0.193856    0.273618     0.008887
AG581   AG        0.121566    0.225500    0.272820     0.008887
AG582   AG        0.114442    0.265686    0.230867     0.008887
AG583   AG        0.157090    0.229473    0.231115     0.008887
AG584   AG        0.156935    0.265888    0.271623     0.008887
AG585   AG        0.198454    0.229270    0.273329     0.008887
AG586   AG        0.199011    0.271889    0.231246     0.008887
AG587   AG        0.237332    0.232344    0.232583     0.008887
CU588   CU        0.238988    0.267793    0.270538     0.006663
CU589   CU        0.277124    0.231900    0.269430     0.006663
CU590   CU        0.277660    0.271535    0.234728     0.006663
CU591   CU        0.319152    0.234627    0.236966     0.006663
CU592   CU        0.313201    0.273955    0.267462     0.006663
CU593   CU        0.352095    0.233085    0.271209     0.006663
CU594   CU        0.350504    0.270364    0.238496     0.006663
CU595   CU        0.384557    0.234997    0.237056     0.006663
CU596   CU        0.385048    0.273982    0.272012     0.006663
CU597   CU        0.418165    0.238587    0.270722     0.006663
CU598   CU        0.417565    0.274072    0.238441     0.006663
CU599   CU        0.454134    0.239892    0.238407     0.006663
CU600   CU        0.453517    0.275720    0.273394     0.006663
CU601   CU        0.487050    0.240403    0.272082     0.006663
CU602   CU        0.489197    0.277041    0.238667     0.006663
CU603   CU        0.523389    0.237032    0.237776     0.006663
CU604   CU        0.521964    0.269125    0.275279     0.006663
CU605   CU        0.562276    0.236777    0.273810     0.006663
CU606   CU        0.558750    0.271593    0.240615     0.006663
CU607   CU        0.594774    0.238037    0.240376     0.006663
CU608   CU        0.597947    0.272955    0.274589     0.006663
CU609   CU        0.630906    0.236341    0.276428     0.006663
CU610   CU        0.630194    0.272884    0.239820     0.006663
AG611   AG        0.668697    0.236226    0.239814     0.008887
CU612   CU        0.666129    0.281116    0.274008     0.006663
AG613   AG        0.708401    0.234778    0.277308     0.008887
AG614   AG        0.702991    0.276665    0.242262     0.008887
AG615   AG        0.746313    0.240348    0.236025     0.008887
AG616   AG        0.747462    0.271545    0.278399     0.008887
AG617   AG        0.788327    0.233240    0.276029     0.008887
AG618   AG        0.793455    0.272072    0.235019     0.008887
AG619   AG        0.076388    0.306486    0.231876     0.008887
AG620   AG        0.117973    0.304958    0.272361     0.008887
AG621   AG        0.116336    0.348343    0.232135     0.008887
AG622   AG        0.155737    0.307783    0.233190     0.008887
AG623   AG        0.162414    0.345280    0.268776     0.008887
CU624   CU        0.198236    0.308956    0.266386     0.006663
CU625   CU        0.201462    0.342049    0.232828     0.006663
CU626   CU        0.243519    0.303724    0.232564     0.006663
CU627   CU        0.238889    0.339620    0.268293     0.006663
CU628   CU        0.273192    0.304838    0.270175     0.006663
CU629   CU        0.274237    0.343278    0.235065     0.006663
CU630   CU        0.310368    0.310535    0.236542     0.006663
CU631   CU        0.310971    0.341263    0.272557     0.006663
CU632   CU        0.347322    0.308064    0.273456     0.006663
CU633   CU        0.347172    0.340748    0.238344     0.006663
CU634   CU        0.383498    0.308300    0.239669     0.006663
CU635   CU        0.382630    0.345064    0.272610     0.006663
CU636   CU        0.418633    0.311977    0.275029     0.006663
CU637   CU        0.417960    0.345184    0.241027     0.006663
CU638   CU        0.455199    0.308104    0.236469     0.006663
CU639   CU        0.453480    0.350042    0.276689     0.006663
CU640   CU        0.486612    0.311771    0.279116     0.006663
CU641   CU        0.486953    0.346836    0.242317     0.006663
CU642   CU        0.523975    0.308929    0.243667     0.006663
CU643   CU        0.525407    0.345393    0.274465     0.006663
CU644   CU        0.560818    0.307545    0.273879     0.006663
CU645   CU        0.557808    0.346353    0.238064     0.006663
CU646   CU        0.593581    0.308336    0.239966     0.006663
CU647   CU        0.592890    0.342269    0.273304     0.006663
CU648   CU        0.628955    0.309323    0.272898     0.006663
CU649   CU        0.630667    0.346029    0.242126     0.006663
CU650   CU        0.664963    0.312957    0.239085     0.006663
CU651   CU        0.667700    0.346985    0.274164     0.006663
CU652   CU        0.700288    0.313180    0.276152     0.006663
CU653   CU        0.706138    0.345037    0.235748     0.006663
AG654   AG        0.748565    0.308385    0.234343     0.008887
AG655   AG        0.740701    0.345755    0.274954     0.008887
AG656   AG        0.783214    0.313642    0.276836     0.008887
AG657   AG        0.787232    0.347572    0.234416     0.008887
AG658   AG        0.824673    0.347752    0.278040     0.008887
AG659   AG        0.062971    0.342484    0.193736     0.008887
AG660   AG        0.070008    0.389997    0.229297     0.008887
AG661   AG        0.120774    0.383977    0.269590     0.008887
AG662   AG        0.119522    0.411454    0.225303     0.008887
AG663   AG        0.164149    0.383657    0.231842     0.008887
CU664   CU        0.170228    0.411419    0.270702     0.006663
CU665   CU        0.204063    0.375761    0.268216     0.006663
CU666   CU        0.210338    0.412163    0.234069     0.006663
CU667   CU        0.240608    0.379689    0.235500     0.006663
CU668   CU        0.240541    0.412645    0.271723     0.006663
CU669   CU        0.276617    0.374882    0.270921     0.006663
CU670   CU        0.275396    0.412676    0.237310     0.006663
CU671   CU        0.309935    0.377456    0.238595     0.006663
CU672   CU        0.309897    0.414421    0.271684     0.006663
CU673   CU        0.343740    0.379579    0.272211     0.006663
CU674   CU        0.345856    0.412119    0.239256     0.006663
CU675   CU        0.381459    0.378423    0.239638     0.006663
CU676   CU        0.381494    0.414412    0.274869     0.006663
CU677   CU        0.417076    0.378559    0.274490     0.006663
CU678   CU        0.418350    0.417785    0.237685     0.006663
CU679   CU        0.453071    0.383103    0.241496     0.006663
CU680   CU        0.452661    0.414555    0.274904     0.006663
CU681   CU        0.486890    0.382163    0.278297     0.006663
CU682   CU        0.489342    0.416775    0.242156     0.006663
CU683   CU        0.524495    0.379694    0.241868     0.006663
CU684   CU        0.522804    0.417507    0.275299     0.006663
CU685   CU        0.560347    0.382146    0.274692     0.006663
CU686   CU        0.561246    0.415943    0.239012     0.006663
CU687   CU        0.596368    0.383594    0.241050     0.006663
CU688   CU        0.593102    0.417232    0.278696     0.006663
CU689   CU        0.628275    0.383516    0.275556     0.006663
CU690   CU        0.630782    0.415375    0.233899     0.006663
CU691   CU        0.668073    0.382724    0.243364     0.006663
CU692   CU        0.666085    0.419554    0.275044     0.006663
CU693   CU        0.704418    0.384506    0.276008     0.006663
CU694   CU        0.702988    0.420132    0.236984     0.006663
AG695   AG        0.741850    0.380987    0.237135     0.008887
CU696   CU        0.741608    0.421703    0.275726     0.006663
AG697   AG        0.779372    0.381203    0.275218     0.008887
AG698   AG        0.782016    0.419364    0.239587     0.008887
AG699   AG        0.825490    0.387210    0.235808     0.008887
AG700   AG        0.821424    0.420323    0.279296     0.008887
AG701   AG        0.040828    0.450695    0.254913     0.008887
AG702   AG        0.078235    0.444181    0.217535     0.008887
AG703   AG        0.087595    0.475762    0.263827     0.008887
AG704   AG        0.132195    0.443414    0.266838     0.008887
AG705   AG        0.126024    0.481993    0.229438     0.008887
AG706   AG        0.167691    0.444220    0.228294     0.008887
CU707   CU        0.165860    0.481501    0.268843     0.006663
CU708   CU        0.203825    0.447478    0.267899     0.006663
CU709   CU        0.200978    0.482488    0.231587     0.006663
CU710   CU        0.241461    0.448705    0.237917     0.006663
CU711   CU        0.235897    0.486412    0.266007     0.006663
CU712   CU        0.277060    0.450054    0.270221     0.006663
CU713   CU        0.276865    0.483115    0.235391     0.006663
CU714   CU        0.311900    0.447944    0.236797     0.006663
CU715   CU        0.310690    0.484306    0.271992     0.006663
CU716   CU        0.344274    0.445963    0.273061     0.006663
CU717   CU        0.343972    0.483679    0.240206     0.006663
CU718   CU        0.379821    0.451558    0.240943     0.006663
CU719   CU        0.380668    0.484622    0.274108     0.006663
CU720   CU        0.417610    0.449162    0.274073     0.006663
CU721   CU        0.416194    0.485229    0.242255     0.006663
CU722   CU        0.454155    0.452162    0.241484     0.006663
CU723   CU        0.450975    0.485614    0.277629     0.006663
CU724   CU        0.487459    0.450112    0.277402     0.006663
CU725   CU        0.486869    0.486906    0.241871     0.006663
CU726   CU        0.524124    0.450531    0.240096     0.006663
CU727   CU        0.523436    0.485681    0.275903     0.006663
CU728   CU        0.560273    0.452501    0.275010     0.006663
CU729   CU        0.560314    0.484618    0.243172     0.006663
CU730   CU        0.592062    0.450602    0.242494     0.006663
CU731   CU        0.595997    0.485903    0.273940     0.006663
CU732   CU        0.630359    0.451595    0.278153     0.006663
CU733   CU        0.629334    0.485058    0.240668     0.006663
CU734   CU        0.666888    0.449034    0.239925     0.006663
CU735   CU        0.661871    0.488243    0.276715     0.006663
CU736   CU        0.702836    0.451973    0.275717     0.006663
CU737   CU        0.698869    0.486762    0.241433     0.006663
AG738   AG        0.744634    0.460604    0.237368     0.008887
CU739   CU        0.738921    0.486669    0.278997     0.006663
AG740   AG        0.784702    0.462943    0.271655     0.008887
AG741   AG        0.794609    0.492725    0.224191     0.008887
AG742   AG        0.829262    0.451483    0.229862     0.008887
AG743   AG        0.831625    0.498574    0.267430     0.008887
AG744   AG        0.868969    0.451508    0.270501     0.008887
AG745   AG        0.070274    0.507037    0.217686     0.008887
AG746   AG        0.072901    0.538941    0.261498     0.008887
AG747   AG        0.125498    0.517839    0.265206     0.008887
AG748   AG        0.110316    0.543623    0.219740     0.008887
AG749   AG        0.165922    0.522507    0.231231     0.008887
AG750   AG        0.167479    0.557278    0.268639     0.008887
CU751   CU        0.205142    0.521793    0.268571     0.006663
CU752   CU        0.206503    0.555693    0.231729     0.006663
CU753   CU        0.238777    0.517019    0.231569     0.006663
CU754   CU        0.240769    0.556801    0.269487     0.006663
CU755   CU        0.276110    0.519244    0.274868     0.006663
CU756   CU        0.276902    0.554627    0.236185     0.006663
CU757   CU        0.309696    0.518938    0.238024     0.006663
CU758   CU        0.311900    0.556569    0.272301     0.006663
CU759   CU        0.346991    0.521301    0.272730     0.006663
CU760   CU        0.343101    0.555034    0.238706     0.006663
CU761   CU        0.381928    0.519280    0.240467     0.006663
CU762   CU        0.379926    0.555298    0.272713     0.006663
CU763   CU        0.415308    0.520992    0.274939     0.006663
CU764   CU        0.418227    0.554527    0.241047     0.006663
CU765   CU        0.453710    0.518387    0.242663     0.006663
CU766   CU        0.452989    0.553859    0.279051     0.006663
CU767   CU        0.486949    0.519943    0.278309     0.006663
CU768   CU        0.486370    0.553467    0.243085     0.006663
CU769   CU        0.522644    0.518445    0.244053     0.006663
CU770   CU        0.524057    0.556916    0.274077     0.006663
CU771   CU        0.558651    0.522159    0.275769     0.006663
CU772   CU        0.561422    0.559164    0.236944     0.006663
CU773   CU        0.591168    0.519485    0.240677     0.006663
CU774   CU        0.594281    0.558603    0.275105     0.006663
CU775   CU        0.626605    0.523267    0.273018     0.006663
CU776   CU        0.631371    0.559606    0.237195     0.006663
CU777   CU        0.663657    0.522452    0.239012     0.006663
CU778   CU        0.666654    0.555919    0.272543     0.006663
CU779   CU        0.698793    0.520449    0.277645     0.006663
CU780   CU        0.703138    0.555441    0.233580     0.006663
AG781   AG        0.745149    0.514462    0.236374     0.008887
AG782   AG        0.740308    0.553382    0.272350     0.008887
AG783   AG        0.779778    0.518247    0.276469     0.008887
AG784   AG        0.786163    0.551966    0.239067     0.008887
AG785   AG        0.834798    0.533719    0.224740     0.008887
AG786   AG        0.825487    0.588697    0.243224     0.008887
AG787   AG        0.115955    0.577828    0.263174     0.008887
AG788   AG        0.115317    0.615534    0.221600     0.008887
AG789   AG        0.152680    0.578184    0.217575     0.008887
AG790   AG        0.153228    0.619882    0.261835     0.008887
CU791   CU        0.206455    0.592487    0.272345     0.006663
AG792   AG        0.193142    0.612208    0.227813     0.008887
CU793   CU        0.240124    0.591459    0.236575     0.006663
CU794   CU        0.238101    0.625715    0.274738     0.006663
CU795   CU        0.273242    0.590420    0.270172     0.006663
CU796   CU        0.275801    0.623535    0.235169     0.006663
CU797   CU        0.311927    0.592369    0.235776     0.006663
CU798   CU        0.308122    0.625996    0.268541     0.006663
CU799   CU        0.345646    0.593477    0.271864     0.006663
CU800   CU        0.348048    0.627682    0.235368     0.006663
CU801   CU        0.381509    0.589048    0.236045     0.006663
CU802   CU        0.379776    0.627610    0.271684     0.006663
CU803   CU        0.415670    0.591289    0.275854     0.006663
CU804   CU        0.417020    0.627609    0.242258     0.006663
CU805   CU        0.452648    0.588066    0.242705     0.006663
CU806   CU        0.453927    0.625255    0.271841     0.006663
CU807   CU        0.490835    0.593143    0.272055     0.006663
CU808   CU        0.491142    0.627283    0.236136     0.006663
CU809   CU        0.525892    0.595698    0.238889     0.006663
CU810   CU        0.523153    0.629657    0.271636     0.006663
CU811   CU        0.561544    0.595591    0.272267     0.006663
CU812   CU        0.559954    0.631345    0.240638     0.006663
CU813   CU        0.598281    0.594819    0.238735     0.006663
CU814   CU        0.596644    0.632277    0.275211     0.006663
CU815   CU        0.633102    0.595254    0.275451     0.006663
CU816   CU        0.627304    0.632095    0.236122     0.006663
CU817   CU        0.668204    0.593306    0.239052     0.006663
CU818   CU        0.667864    0.630820    0.275004     0.006663
CU819   CU        0.702412    0.590560    0.276640     0.006663
AG820   AG        0.704801    0.633016    0.237914     0.008887
AG821   AG        0.748030    0.592008    0.235721     0.008887
AG822   AG        0.742338    0.627352    0.276438     0.008887
AG823   AG        0.784952    0.589839    0.277988     0.008887
AG824   AG        0.787368    0.628926    0.240020     0.008887
AG825   AG        0.117488    0.656229    0.262183     0.008887
AG826   AG        0.156416    0.655845    0.222928     0.008887
AG827   AG        0.158234    0.693749    0.266594     0.008887
AG828   AG        0.197210    0.651750    0.264162     0.008887
AG829   AG        0.197186    0.692876    0.225992     0.008887
AG830   AG        0.237343    0.657088    0.228823     0.008887
AG831   AG        0.233322    0.693250    0.267594     0.008887
CU832   CU        0.272250    0.659522    0.267062     0.006663
AG833   AG        0.273436    0.694981    0.230720     0.008887
CU834   CU        0.311685    0.660843    0.229590     0.006663
CU835   CU        0.313724    0.703188    0.267375     0.006663
CU836   CU        0.343903    0.662314    0.267817     0.006663
CU837   CU        0.346614    0.700609    0.229486     0.006663
CU838   CU        0.381218    0.663953    0.235638     0.006663
CU839   CU        0.378231    0.700166    0.267158     0.006663
CU840   CU        0.414840    0.661039    0.273801     0.006663
CU841   CU        0.415327    0.692575    0.236553     0.006663
CU842   CU        0.454792    0.660030    0.238399     0.006663
CU843   CU        0.450092    0.695723    0.272426     0.006663
CU844   CU        0.487758    0.665183    0.271485     0.006663
CU845   CU        0.485583    0.700854    0.237844     0.006663
CU846   CU        0.524795    0.666163    0.238202     0.006663
CU847   CU        0.520004    0.703241    0.274245     0.006663
CU848   CU        0.559125    0.665884    0.274304     0.006663
CU849   CU        0.556993    0.702141    0.241260     0.006663
CU850   CU        0.592437    0.666260    0.236700     0.006663
CU851   CU        0.593554    0.700423    0.274385     0.006663
CU852   CU        0.629336    0.666332    0.273160     0.006663
AG853   AG        0.627183    0.707311    0.235289     0.008887
AG854   AG        0.666081    0.667437    0.236991     0.008887
AG855   AG        0.667103    0.707291    0.274103     0.008887
AG856   AG        0.703176    0.667598    0.275448     0.008887
AG857   AG        0.704293    0.706819    0.234639     0.008887
AG858   AG        0.749004    0.667140    0.237573     0.008887
AG859   AG        0.746660    0.706362    0.274290     0.008887
AG860   AG        0.786452    0.667220    0.278376     0.008887
AG861   AG        0.192629    0.732910    0.261749     0.008887
AG862   AG        0.230879    0.738189    0.217125     0.008887
AG863   AG        0.230402    0.774104    0.259671     0.008887
AG864   AG        0.267584    0.736414    0.262930     0.008887
AG865   AG        0.270506    0.777823    0.223665     0.008887
AG866   AG        0.308430    0.737304    0.226919     0.008887
AG867   AG        0.308672    0.777054    0.264566     0.008887
AG868   AG        0.346060    0.739116    0.268110     0.008887
AG869   AG        0.349096    0.779697    0.227295     0.008887
AG870   AG        0.390272    0.739867    0.228368     0.008887
AG871   AG        0.382757    0.778461    0.267328     0.008887
CU872   CU        0.412085    0.735388    0.274558     0.006663
AG873   AG        0.402017    0.788711    0.211204     0.008887
AG874   AG        0.444273    0.734216    0.237305     0.008887
AG875   AG        0.436376    0.780408    0.259287     0.008887
CU876   CU        0.483060    0.735663    0.271384     0.006663
AG877   AG        0.484211    0.780064    0.234090     0.008887
AG878   AG        0.522463    0.739650    0.236029     0.008887
AG879   AG        0.520061    0.777535    0.276617     0.008887
AG880   AG        0.557022    0.738817    0.278404     0.008887
AG881   AG        0.552163    0.789322    0.232928     0.008887
AG882   AG        0.586975    0.744750    0.235401     0.008887
AG883   AG        0.590849    0.782273    0.278922     0.008887
AG884   AG        0.628668    0.743881    0.276436     0.008887
AG885   AG        0.627428    0.787849    0.235404     0.008887
AG886   AG        0.666229    0.748426    0.234857     0.008887
AG887   AG        0.669465    0.787354    0.275319     0.008887
AG888   AG        0.705535    0.745761    0.276272     0.008887
AG889   AG        0.342000    0.823828    0.263260     0.008887
AG890   AG        0.361886    0.832165    0.208047     0.008887
AG891   AG        0.404102    0.824824    0.252945     0.008887
AG892   AG        0.452326    0.821039    0.228828     0.008887
AG893   AG        0.447184    0.864609    0.261746     0.008887
AG894   AG        0.484775    0.818016    0.270921     0.008887
AG895   AG        0.517726    0.831316    0.231469     0.008887
AG896   AG        0.550555    0.823827    0.275789     0.008887
AG897   AG        0.289776    0.030446    0.318808     0.008887
AG898   AG        0.328979    0.034873    0.277133     0.008887
AG899   AG        0.367085    0.043850    0.319432     0.008887
AG900   AG        0.392546    0.028815    0.264101     0.008887
AG901   AG        0.425914    0.034235    0.310890     0.008887
AG902   AG        0.488717    0.032053    0.303534     0.008887
AG903   AG        0.518041    0.036352    0.347261     0.008887
AG904   AG        0.552806    0.036776    0.305326     0.008887
AG905   AG        0.613968    0.031184    0.322634     0.008887
AG906   AG        0.194877    0.107444    0.314433     0.008887
AG907   AG        0.239757    0.112289    0.346831     0.008887
AG908   AG        0.246898    0.063463    0.318031     0.008887
AG909   AG        0.279730    0.110721    0.311979     0.008887
AG910   AG        0.284275    0.067336    0.274136     0.008887
AG911   AG        0.319405    0.123025    0.346033     0.008887
AG912   AG        0.321733    0.077546    0.315414     0.008887
AG913   AG        0.357374    0.116432    0.308263     0.008887
AG914   AG        0.367523    0.076056    0.274974     0.008887
CU915   CU        0.386764    0.129471    0.348377     0.006663
AG916   AG        0.402682    0.085540    0.317230     0.008887
AG917   AG        0.427604    0.130105    0.312971     0.008887
AG918   AG        0.454202    0.080949    0.312694     0.008887
CU919   CU        0.456361    0.137692    0.351434     0.006663
AG920   AG        0.490143    0.092679    0.353007     0.008887
AG921   AG        0.485591    0.128422    0.312906     0.008887
AG922   AG        0.513488    0.081892    0.307018     0.008887
CU923   CU        0.523054    0.134589    0.349304     0.006663
AG924   AG        0.585654    0.078048    0.316156     0.008887
AG925   AG        0.551660    0.123254    0.308409     0.008887
AG926   AG        0.624558    0.075072    0.275672     0.008887
AG927   AG        0.587112    0.122644    0.348972     0.008887
AG928   AG        0.658610    0.073807    0.318543     0.008887
AG929   AG        0.626091    0.116925    0.315693     0.008887
AG930   AG        0.664960    0.118203    0.351472     0.008887
AG931   AG        0.707588    0.116726    0.315600     0.008887
AG932   AG        0.119596    0.186432    0.313973     0.008887
AG933   AG        0.157300    0.147368    0.310237     0.008887
AG934   AG        0.161997    0.189381    0.351473     0.008887
AG935   AG        0.199981    0.150270    0.352127     0.008887
AG936   AG        0.201474    0.189749    0.313321     0.008887
AG937   AG        0.237698    0.152024    0.310978     0.008887
CU938   CU        0.243620    0.198065    0.345078     0.006663
AG939   AG        0.280062    0.158496    0.342079     0.008887
CU940   CU        0.271206    0.199634    0.303536     0.006663
AG941   AG        0.317378    0.159205    0.306699     0.008887
CU942   CU        0.314409    0.200484    0.340499     0.006663
CU943   CU        0.351680    0.167901    0.343270     0.006663
CU944   CU        0.352698    0.200310    0.305673     0.006663
CU945   CU        0.388625    0.164756    0.309968     0.006663
CU946   CU        0.385949    0.205329    0.343352     0.006663
CU947   CU        0.422993    0.170302    0.345949     0.006663
CU948   CU        0.419749    0.205341    0.310056     0.006663
CU949   CU        0.456426    0.172068    0.312579     0.006663
CU950   CU        0.456354    0.204692    0.344695     0.006663
CU951   CU        0.487916    0.171495    0.344449     0.006663
CU952   CU        0.490744    0.207504    0.310681     0.006663
CU953   CU        0.520454    0.169728    0.309210     0.006663
CU954   CU        0.526104    0.199727    0.345834     0.006663
CU955   CU        0.557010    0.166089    0.344957     0.006663
CU956   CU        0.558476    0.200932    0.306081     0.006663
AG957   AG        0.590826    0.160081    0.304870     0.008887
CU958   CU        0.592781    0.202709    0.345231     0.006663
AG959   AG        0.624786    0.163233    0.345438     0.008887
CU960   CU        0.629106    0.201973    0.311546     0.006663
AG961   AG        0.670119    0.154181    0.312124     0.008887
CU962   CU        0.662280    0.196372    0.345271     0.006663
AG963   AG        0.704943    0.157802    0.353561     0.008887
AG964   AG        0.706437    0.195439    0.315164     0.008887
AG965   AG        0.750762    0.155661    0.317935     0.008887
AG966   AG        0.743666    0.193316    0.357337     0.008887
AG967   AG        0.786827    0.195074    0.319568     0.008887
AG968   AG        0.076550    0.225501    0.319204     0.008887
AG969   AG        0.122628    0.226689    0.352194     0.008887
AG970   AG        0.121392    0.262769    0.312807     0.008887
AG971   AG        0.161624    0.223567    0.311670     0.008887
AG972   AG        0.164796    0.267726    0.344890     0.008887
CU973   CU        0.203075    0.233671    0.342143     0.006663
CU974   CU        0.201710    0.269675    0.303669     0.006663
CU975   CU        0.238522    0.233119    0.306372     0.006663
CU976   CU        0.239182    0.268814    0.338898     0.006663
CU977   CU        0.276556    0.231519    0.338766     0.006663
CU978   CU        0.273514    0.266172    0.301831     0.006663
CU979   CU        0.312854    0.230553    0.304238     0.006663
CU980   CU        0.309636    0.271817    0.338665     0.006663
CU981   CU        0.348236    0.235580    0.337574     0.006663
CU982   CU        0.349232    0.271952    0.303982     0.006663
CU983   CU        0.386263    0.238937    0.307607     0.006663
CU984   CU        0.381387    0.272869    0.344533     0.006663
CU985   CU        0.416567    0.239357    0.344220     0.006663
CU986   CU        0.418322    0.275002    0.307695     0.006663
CU987   CU        0.454427    0.240999    0.311479     0.006663
CU988   CU        0.452198    0.273379    0.345333     0.006663
CU989   CU        0.490098    0.240697    0.346041     0.006663
CU990   CU        0.491762    0.271773    0.310945     0.006663
CU991   CU        0.526847    0.236955    0.310267     0.006663
CU992   CU        0.523681    0.275261    0.342584     0.006663
CU993   CU        0.560472    0.238705    0.347616     0.006663
CU994   CU        0.560487    0.273619    0.307705     0.006663
CU995   CU        0.595067    0.234126    0.310614     0.006663
CU996   CU        0.594284    0.271746    0.342041     0.006663
CU997   CU        0.630135    0.236267    0.345495     0.006663
CU998   CU        0.630174    0.276764    0.307237     0.006663
CU999   CU        0.668048    0.238144    0.309467     0.006663
CU1000   CU        0.666081    0.272346    0.344229     0.006663
CU1001   CU        0.699359    0.233616    0.348918     0.006663
CU1002   CU        0.699643    0.274605    0.311948     0.006663
AG1003   AG        0.748292    0.230992    0.315277     0.008887
AG1004   AG        0.735822    0.270411    0.348701     0.008887
AG1005   AG        0.782372    0.233581    0.357924     0.008887
AG1006   AG        0.784213    0.273173    0.320404     0.008887
AG1007   AG        0.825388    0.235420    0.323288     0.008887
AG1008   AG        0.038254    0.271592    0.317893     0.008887
AG1009   AG        0.036377    0.310546    0.270620     0.008887
AG1010   AG        0.079014    0.268526    0.277547     0.008887
AG1011   AG        0.079929    0.309375    0.313964     0.008887
AG1012   AG        0.127485    0.307616    0.346584     0.008887
AG1013   AG        0.118933    0.343617    0.308181     0.008887
AG1014   AG        0.164180    0.305819    0.304334     0.008887
CU1015   CU        0.165214    0.342879    0.342120     0.006663
CU1016   CU        0.205208    0.304056    0.341463     0.006663
CU1017   CU        0.201309    0.341571    0.304155     0.006663
CU1018   CU        0.238638    0.306552    0.306881     0.006663
CU1019   CU        0.238442    0.339570    0.340236     0.006663
CU1020   CU        0.274325    0.304898    0.341877     0.006663
CU1021   CU        0.273281    0.339465    0.304251     0.006663
CU1022   CU        0.309014    0.305432    0.304855     0.006663
CU1023   CU        0.309702    0.339684    0.336907     0.006663
CU1024   CU        0.345766    0.307395    0.338576     0.006663
CU1025   CU        0.347898    0.346035    0.305608     0.006663
CU1026   CU        0.381727    0.308380    0.308574     0.006663
CU1027   CU        0.379076    0.347332    0.344148     0.006663
CU1028   CU        0.419961    0.307253    0.345054     0.006663
CU1029   CU        0.420056    0.349161    0.311035     0.006663
CU1030   CU        0.450880    0.311483    0.311232     0.006663
CU1031   CU        0.451153    0.342680    0.346938     0.006663
CU1032   CU        0.487278    0.308548    0.344490     0.006663
CU1033   CU        0.484797    0.344773    0.314346     0.006663
CU1034   CU        0.524388    0.311166    0.308366     0.006663
CU1035   CU        0.522117    0.344874    0.344104     0.006663
CU1036   CU        0.560770    0.308068    0.342168     0.006663
CU1037   CU        0.557483    0.344810    0.309912     0.006663
CU1038   CU        0.594582    0.308015    0.309110     0.006663
CU1039   CU        0.593102    0.343182    0.343083     0.006663
CU1040   CU        0.630812    0.311045    0.344731     0.006663
CU1041   CU        0.628593    0.344726    0.311200     0.006663
CU1042   CU        0.663550    0.310635    0.312567     0.006663
CU1043   CU        0.661672    0.346386    0.345870     0.006663
CU1044   CU        0.699287    0.315514    0.345344     0.006663
CU1045   CU        0.702387    0.346842    0.310194     0.006663
AG1046   AG        0.741843    0.310284    0.313163     0.008887
CU1047   CU        0.732557    0.349530    0.345417     0.006663
AG1048   AG        0.776320    0.313628    0.354697     0.008887
AG1049   AG        0.778221    0.349748    0.316145     0.008887
AG1050   AG        0.824925    0.280632    0.283998     0.008887
AG1051   AG        0.824801    0.325186    0.327536     0.008887
AG1052   AG        0.867204    0.283812    0.323775     0.008887
AG1053   AG        0.864224    0.383002    0.289466     0.008887
AG1054   AG        0.040400    0.353113    0.314125     0.008887
AG1055   AG        0.040475    0.388990    0.272818     0.008887
AG1056   AG        0.078783    0.348212    0.271773     0.008887
AG1057   AG        0.080983    0.389613    0.311794     0.008887
CU1058   CU        0.133845    0.379775    0.345375     0.006663
AG1059   AG        0.128913    0.415046    0.311366     0.008887
CU1060   CU        0.162211    0.376563    0.307194     0.006663
CU1061   CU        0.169801    0.411159    0.342724     0.006663
CU1062   CU        0.204132    0.373124    0.341886     0.006663
CU1063   CU        0.203042    0.407473    0.304339     0.006663
CU1064   CU        0.241486    0.377062    0.305047     0.006663
CU1065   CU        0.242011    0.413343    0.338855     0.006663
CU1066   CU        0.272966    0.373550    0.340342     0.006663
CU1067   CU        0.275398    0.414146    0.306463     0.006663
CU1068   CU        0.310089    0.377942    0.305857     0.006663
CU1069   CU        0.310369    0.414413    0.339935     0.006663
CU1070   CU        0.344035    0.378177    0.342123     0.006663
CU1071   CU        0.344303    0.412319    0.308207     0.006663
CU1072   CU        0.384544    0.380927    0.310459     0.006663
CU1073   CU        0.376434    0.416514    0.343260     0.006663
CU1074   CU        0.413619    0.383897    0.346136     0.006663
CU1075   CU        0.414329    0.418140    0.309209     0.006663
CU1076   CU        0.452142    0.385229    0.312762     0.006663
CU1077   CU        0.452876    0.416630    0.346379     0.006663
CU1078   CU        0.485614    0.379814    0.344675     0.006663
CU1079   CU        0.487271    0.417028    0.310879     0.006663
CU1080   CU        0.523451    0.379514    0.308769     0.006663
CU1081   CU        0.523510    0.416073    0.344639     0.006663
CU1082   CU        0.554553    0.380665    0.346071     0.006663
CU1083   CU        0.557417    0.415842    0.310638     0.006663
CU1084   CU        0.589890    0.377553    0.310049     0.006663
CU1085   CU        0.590239    0.416351    0.342670     0.006663
CU1086   CU        0.624533    0.379309    0.345298     0.006663
CU1087   CU        0.627758    0.417407    0.309304     0.006663
CU1088   CU        0.661388    0.382623    0.309914     0.006663
CU1089   CU        0.660004    0.415790    0.343935     0.006663
CU1090   CU        0.695783    0.383054    0.342669     0.006663
CU1091   CU        0.696491    0.418572    0.311251     0.006663
CU1092   CU        0.735436    0.384129    0.311545     0.006663
CU1093   CU        0.730752    0.418908    0.348732     0.006663
CU1094   CU        0.765426    0.388375    0.346707     0.006663
AG1095   AG        0.777633    0.422526    0.312804     0.008887
AG1096   AG        0.815725    0.385403    0.324790     0.008887
AG1097   AG        0.806523    0.426792    0.363314     0.008887
AG1098   AG        0.863513    0.372116    0.345019     0.008887
AG1099   AG        0.859220    0.424494    0.320407     0.008887
AG1100   AG        0.041861    0.428192    0.311856     0.008887
AG1101   AG        0.041964    0.488564    0.294814     0.008887
AG1102   AG        0.083849    0.423278    0.269474     0.008887
AG1103   AG        0.085395    0.457209    0.312426     0.008887
CU1104   CU        0.136402    0.450808    0.344130     0.006663
AG1105   AG        0.134868    0.479931    0.304760     0.008887
CU1106   CU        0.171612    0.444867    0.306028     0.006663
CU1107   CU        0.173490    0.482108    0.339329     0.006663
CU1108   CU        0.206125    0.447484    0.338331     0.006663
CU1109   CU        0.203674    0.486013    0.301282     0.006663
CU1110   CU        0.239736    0.449150    0.307781     0.006663
CU1111   CU        0.243436    0.484826    0.339757     0.006663
CU1112   CU        0.277006    0.449678    0.341685     0.006663
CU1113   CU        0.278820    0.487912    0.308160     0.006663
CU1114   CU        0.307764    0.450841    0.305622     0.006663
CU1115   CU        0.311400    0.485678    0.344225     0.006663
CU1116   CU        0.344010    0.450757    0.343828     0.006663
CU1117   CU        0.348370    0.485605    0.308891     0.006663
CU1118   CU        0.379375    0.451580    0.307533     0.006663
CU1119   CU        0.379365    0.485866    0.344667     0.006663
CU1120   CU        0.415613    0.452101    0.343805     0.006663
CU1121   CU        0.417322    0.483336    0.309455     0.006663
CU1122   CU        0.452858    0.450253    0.308958     0.006663
CU1123   CU        0.451141    0.484921    0.346413     0.006663
CU1124   CU        0.487211    0.448484    0.346755     0.006663
CU1125   CU        0.487353    0.484868    0.312088     0.006663
CU1126   CU        0.524799    0.451303    0.309508     0.006663
CU1127   CU        0.524201    0.485868    0.343898     0.006663
CU1128   CU        0.555422    0.450608    0.345167     0.006663
CU1129   CU        0.558968    0.486428    0.309850     0.006663
CU1130   CU        0.592354    0.453268    0.308655     0.006663
CU1131   CU        0.590964    0.483836    0.344911     0.006663
CU1132   CU        0.624319    0.450588    0.346086     0.006663
CU1133   CU        0.626254    0.488561    0.313842     0.006663
CU1134   CU        0.661849    0.454108    0.311611     0.006663
CU1135   CU        0.659528    0.488181    0.346866     0.006663
CU1136   CU        0.693856    0.451607    0.346459     0.006663
CU1137   CU        0.699401    0.484705    0.310235     0.006663
CU1138   CU        0.730701    0.451267    0.314842     0.006663
CU1139   CU        0.732276    0.482398    0.349000     0.006663
CU1140   CU        0.764468    0.451867    0.350983     0.006663
AG1141   AG        0.771376    0.486045    0.317794     0.008887
AG1142   AG        0.815116    0.458068    0.318035     0.008887
AG1143   AG        0.816010    0.510450    0.317593     0.008887
AG1144   AG        0.853838    0.457700    0.360549     0.008887
AG1145   AG        0.864144    0.488668    0.311747     0.008887
AG1146   AG        0.046418    0.514600    0.345482     0.008887
AG1147   AG        0.033097    0.544578    0.298145     0.008887
AG1148   AG        0.088750    0.513120    0.306361     0.008887
AG1149   AG        0.089903    0.543277    0.351366     0.008887
CU1150   CU        0.138971    0.513964    0.341762     0.006663
AG1151   AG        0.129797    0.553407    0.310084     0.008887
CU1152   CU        0.171447    0.520113    0.304353     0.006663
CU1153   CU        0.171192    0.556185    0.341841     0.006663
CU1154   CU        0.207524    0.519768    0.338072     0.006663
CU1155   CU        0.205405    0.555489    0.305345     0.006663
CU1156   CU        0.241454    0.518502    0.305260     0.006663
CU1157   CU        0.241488    0.557244    0.338818     0.006663
CU1158   CU        0.277591    0.523637    0.340276     0.006663
CU1159   CU        0.277210    0.558387    0.306048     0.006663
CU1160   CU        0.312968    0.521718    0.309776     0.006663
CU1161   CU        0.313563    0.556346    0.344679     0.006663
CU1162   CU        0.347726    0.519169    0.345374     0.006663
CU1163   CU        0.347357    0.555082    0.309123     0.006663
CU1164   CU        0.382016    0.520632    0.308400     0.006663
CU1165   CU        0.378281    0.553426    0.345552     0.006663
CU1166   CU        0.413423    0.519669    0.346550     0.006663
CU1167   CU        0.412228    0.557491    0.311106     0.006663
CU1168   CU        0.445826    0.519559    0.313457     0.006663
CU1169   CU        0.448690    0.555434    0.343356     0.006663
CU1170   CU        0.485593    0.520356    0.343439     0.006663
CU1171   CU        0.488654    0.561667    0.307657     0.006663
CU1172   CU        0.522450    0.524159    0.310180     0.006663
CU1173   CU        0.521729    0.557710    0.344817     0.006663
CU1174   CU        0.557514    0.521612    0.343974     0.006663
CU1175   CU        0.556051    0.561529    0.310297     0.006663
CU1176   CU        0.593786    0.522367    0.307362     0.006663
CU1177   CU        0.591071    0.558542    0.343285     0.006663
CU1178   CU        0.624701    0.525064    0.348358     0.006663
CU1179   CU        0.625408    0.563107    0.309237     0.006663
CU1180   CU        0.655258    0.526074    0.311105     0.006663
CU1181   CU        0.656129    0.560797    0.345947     0.006663
CU1182   CU        0.695093    0.519663    0.346061     0.006663
CU1183   CU        0.700647    0.554068    0.308364     0.006663
CU1184   CU        0.732308    0.520692    0.311901     0.006663
CU1185   CU        0.729498    0.554549    0.347881     0.006663
CU1186   CU        0.766988    0.519999    0.352691     0.006663
AG1187   AG        0.775785    0.554310    0.317516     0.008887
AG1188   AG        0.821279    0.550894    0.284137     0.008887
AG1189   AG        0.819548    0.586716    0.326281     0.008887
AG1190   AG        0.858893    0.540811    0.326508     0.008887
AG1191   AG        0.861795    0.586961    0.286742     0.008887
AG1192   AG        0.044043    0.573960    0.341539     0.008887
AG1193   AG        0.080944    0.572081    0.304618     0.008887
AG1194   AG        0.077967    0.618172    0.345779     0.008887
AG1195   AG        0.125132    0.588053    0.350848     0.008887
AG1196   AG        0.118845    0.615990    0.304940     0.008887
AG1197   AG        0.168436    0.594974    0.308287     0.008887
AG1198   AG        0.156474    0.631843    0.351403     0.008887
CU1199   CU        0.206324    0.593034    0.341313     0.006663
CU1200   CU        0.202989    0.630374    0.313000     0.006663
CU1201   CU        0.243059    0.591886    0.307611     0.006663
CU1202   CU        0.239497    0.623846    0.345832     0.006663
CU1203   CU        0.276998    0.591053    0.339944     0.006663
CU1204   CU        0.281233    0.625335    0.304677     0.006663
CU1205   CU        0.316157    0.589530    0.311255     0.006663
CU1206   CU        0.307912    0.627797    0.344100     0.006663
CU1207   CU        0.347459    0.591544    0.344978     0.006663
CU1208   CU        0.344877    0.626893    0.304860     0.006663
CU1209   CU        0.378891    0.591019    0.306763     0.006663
CU1210   CU        0.379003    0.627918    0.344848     0.006663
CU1211   CU        0.411469    0.593325    0.345367     0.006663
CU1212   CU        0.409713    0.625405    0.307604     0.006663
CU1213   CU        0.455319    0.592510    0.309870     0.006663
CU1214   CU        0.449524    0.625483    0.340932     0.006663
CU1215   CU        0.489634    0.593090    0.345590     0.006663
CU1216   CU        0.487461    0.629242    0.305088     0.006663
CU1217   CU        0.525136    0.598853    0.306484     0.006663
CU1218   CU        0.521584    0.628445    0.340009     0.006663
CU1219   CU        0.552629    0.595524    0.343693     0.006663
CU1220   CU        0.557067    0.632011    0.306892     0.006663
CU1221   CU        0.594012    0.594224    0.307597     0.006663
CU1222   CU        0.589454    0.630437    0.344719     0.006663
CU1223   CU        0.628388    0.598994    0.340132     0.006663
CU1224   CU        0.630617    0.631122    0.308638     0.006663
CU1225   CU        0.668147    0.595008    0.308964     0.006663
CU1226   CU        0.664785    0.629801    0.344081     0.006663
CU1227   CU        0.693560    0.589846    0.347736     0.006663
CU1228   CU        0.701344    0.629550    0.314445     0.006663
AG1229   AG        0.737198    0.591729    0.313450     0.008887
AG1230   AG        0.737832    0.626831    0.354927     0.008887
AG1231   AG        0.776049    0.587542    0.355680     0.008887
AG1232   AG        0.781754    0.626656    0.318221     0.008887
AG1233   AG        0.827486    0.626556    0.286777     0.008887
AG1234   AG        0.828264    0.637050    0.345766     0.008887
AG1235   AG        0.872959    0.591218    0.342241     0.008887
AG1236   AG        0.114117    0.661669    0.344152     0.008887
AG1237   AG        0.114436    0.701356    0.302467     0.008887
AG1238   AG        0.157464    0.656759    0.304517     0.008887
AG1239   AG        0.153660    0.695802    0.343777     0.008887
CU1240   CU        0.198341    0.664297    0.346026     0.006663
AG1241   AG        0.198201    0.693761    0.305651     0.008887
CU1242   CU        0.240377    0.662308    0.307429     0.006663
CU1243   CU        0.236030    0.700754    0.342958     0.006663
CU1244   CU        0.272729    0.661752    0.343097     0.006663
CU1245   CU        0.271030    0.701616    0.300430     0.006663
CU1246   CU        0.305873    0.665781    0.306723     0.006663
CU1247   CU        0.309690    0.696817    0.344837     0.006663
CU1248   CU        0.343853    0.662670    0.344879     0.006663
CU1249   CU        0.344228    0.697088    0.307183     0.006663
CU1250   CU        0.375905    0.660875    0.306122     0.006663
CU1251   CU        0.381066    0.699422    0.341783     0.006663
CU1252   CU        0.413850    0.662101    0.337423     0.006663
CU1253   CU        0.412129    0.696565    0.303034     0.006663
CU1254   CU        0.451112    0.658225    0.305968     0.006663
CU1255   CU        0.447507    0.695609    0.338666     0.006663
CU1256   CU        0.486914    0.659979    0.341990     0.006663
CU1257   CU        0.485875    0.695528    0.308732     0.006663
CU1258   CU        0.522238    0.663701    0.308252     0.006663
CU1259   CU        0.517595    0.694320    0.343938     0.006663
CU1260   CU        0.555922    0.662992    0.342498     0.006663
CU1261   CU        0.557287    0.698560    0.309440     0.006663
CU1262   CU        0.592542    0.664365    0.308969     0.006663
CU1263   CU        0.587752    0.697867    0.343489     0.006663
CU1264   CU        0.627197    0.661563    0.344742     0.006663
CU1265   CU        0.629190    0.700708    0.312331     0.006663
CU1266   CU        0.666504    0.663313    0.311901     0.006663
CU1267   CU        0.664412    0.706141    0.351108     0.006663
CU1268   CU        0.699528    0.665301    0.350428     0.006663
AG1269   AG        0.702535    0.703184    0.315488     0.008887
AG1270   AG        0.743599    0.666266    0.319144     0.008887
AG1271   AG        0.740786    0.703980    0.355864     0.008887
AG1272   AG        0.784133    0.669721    0.353283     0.008887
AG1273   AG        0.783379    0.706183    0.315334     0.008887
AG1274   AG        0.153829    0.737363    0.304987     0.008887
AG1275   AG        0.197193    0.736679    0.341587     0.008887
AG1276   AG        0.193028    0.776528    0.300314     0.008887
AG1277   AG        0.231851    0.736509    0.301863     0.008887
AG1278   AG        0.229319    0.777179    0.340416     0.008887
AG1279   AG        0.269189    0.735487    0.343360     0.008887
AG1280   AG        0.268941    0.777546    0.303213     0.008887
AG1281   AG        0.308825    0.734623    0.302998     0.008887
AG1282   AG        0.307312    0.771976    0.343965     0.008887
CU1283   CU        0.345256    0.738047    0.344490     0.006663
AG1284   AG        0.346922    0.778300    0.303661     0.008887
CU1285   CU        0.380707    0.735340    0.307721     0.006663
CU1286   CU        0.377995    0.771733    0.349132     0.006663
CU1287   CU        0.413800    0.729343    0.342098     0.006663
AG1288   AG        0.415428    0.772543    0.311008     0.008887
CU1289   CU        0.448552    0.731436    0.307229     0.006663
CU1290   CU        0.446001    0.768051    0.350405     0.006663
CU1291   CU        0.479553    0.730710    0.344871     0.006663
AG1292   AG        0.471813    0.777534    0.303626     0.008887
CU1293   CU        0.515255    0.737976    0.308617     0.006663
CU1294   CU        0.504702    0.771528    0.342069     0.006663
CU1295   CU        0.551218    0.730212    0.341495     0.006663
AG1296   AG        0.554289    0.778894    0.319551     0.008887
AG1297   AG        0.593696    0.739122    0.316764     0.008887
AG1298   AG        0.595272    0.783658    0.357715     0.008887
AG1299   AG        0.632039    0.744006    0.357459     0.008887
AG1300   AG        0.632497    0.787198    0.313168     0.008887
AG1301   AG        0.666230    0.744209    0.316479     0.008887
AG1302   AG        0.666473    0.785104    0.353615     0.008887
AG1303   AG        0.704153    0.744177    0.355516     0.008887
AG1304   AG        0.707734    0.785682    0.318347     0.008887
AG1305   AG        0.744941    0.745266    0.318605     0.008887
AG1306   AG        0.263437    0.821280    0.342749     0.008887
AG1307   AG        0.307836    0.816143    0.307347     0.008887
AG1308   AG        0.305144    0.859239    0.345495     0.008887
AG1309   AG        0.346480    0.812996    0.345171     0.008887
AG1310   AG        0.342330    0.868575    0.310172     0.008887
AG1311   AG        0.383744    0.820291    0.303584     0.008887
AG1312   AG        0.381580    0.852532    0.345995     0.008887
AG1313   AG        0.417118    0.810709    0.349879     0.008887
AG1314   AG        0.395783    0.869328    0.292827     0.008887
AG1315   AG        0.436659    0.822188    0.296045     0.008887
AG1316   AG        0.434777    0.862141    0.333634     0.008887
AG1317   AG        0.470297    0.815267    0.338739     0.008887
AG1318   AG        0.484202    0.859865    0.307741     0.008887
AG1319   AG        0.517848    0.816045    0.318570     0.008887
AG1320   AG        0.509669    0.860887    0.357572     0.008887
AG1321   AG        0.553564    0.825109    0.356641     0.008887
AG1322   AG        0.548126    0.863101    0.316006     0.008887
AG1323   AG        0.591756    0.827107    0.317316     0.008887
AG1324   AG        0.587935    0.870386    0.352284     0.008887
AG1325   AG        0.632709    0.826169    0.352185     0.008887
AG1326   AG        0.321893    0.039970    0.419295     0.008887
AG1327   AG        0.331791    0.042476    0.362217     0.008887
AG1328   AG        0.369647    0.051946    0.402179     0.008887
AG1329   AG        0.406843    0.012539    0.409010     0.008887
AG1330   AG        0.405340    0.052661    0.359974     0.008887
AG1331   AG        0.433481    0.002082    0.359979     0.008887
AG1332   AG        0.445268    0.051901    0.402014     0.008887
AG1333   AG        0.485723    0.014938    0.393225     0.008887
AG1334   AG        0.462635    0.045130    0.349713     0.008887
AG1335   AG        0.527362    0.057243    0.393224     0.008887
AG1336   AG        0.573946    0.043482    0.361492     0.008887
AG1337   AG        0.585451    0.039490    0.420871     0.008887
AG1338   AG        0.144100    0.090529    0.397797     0.008887
AG1339   AG        0.193338    0.106185    0.382008     0.008887
AG1340   AG        0.234523    0.065921    0.384361     0.008887
AG1341   AG        0.239496    0.114487    0.417934     0.008887
AG1342   AG        0.278616    0.077085    0.418523     0.008887
AG1343   AG        0.280428    0.118691    0.385223     0.008887
AG1344   AG        0.282602    0.070234    0.357891     0.008887
AG1345   AG        0.320939    0.132075    0.414951     0.008887
AG1346   AG        0.325083    0.086812    0.392675     0.008887
CU1347   CU        0.356851    0.127915    0.384952     0.006663
AG1348   AG        0.360878    0.087963    0.354672     0.008887
CU1349   CU        0.387738    0.140572    0.416459     0.006663
AG1350   AG        0.402584    0.094354    0.397298     0.008887
CU1351   CU        0.420570    0.140114    0.382888     0.006663
AG1352   AG        0.435572    0.094002    0.358133     0.008887
CU1353   CU        0.454542    0.137357    0.412456     0.006663
AG1354   AG        0.485317    0.095051    0.400850     0.008887
CU1355   CU        0.490463    0.139482    0.379701     0.006663
AG1356   AG        0.542864    0.088892    0.351646     0.008887
CU1357   CU        0.523211    0.139661    0.417118     0.006663
AG1358   AG        0.570800    0.089786    0.397607     0.008887
CU1359   CU        0.554339    0.134813    0.381157     0.006663
AG1360   AG        0.618092    0.076846    0.358576     0.008887
AG1361   AG        0.585548    0.136539    0.419556     0.008887
AG1362   AG        0.625528    0.074356    0.415213     0.008887
AG1363   AG        0.624966    0.122116    0.388811     0.008887
AG1364   AG        0.671172    0.070063    0.375697     0.008887
AG1365   AG        0.670852    0.110911    0.415339     0.008887
AG1366   AG        0.710215    0.107388    0.375824     0.008887
AG1367   AG        0.752377    0.110715    0.413450     0.008887
AG1368   AG        0.106881    0.130508    0.410146     0.008887
AG1369   AG        0.111883    0.177325    0.379271     0.008887
AG1370   AG        0.155700    0.141481    0.383966     0.008887
AG1371   AG        0.159511    0.189032    0.413927     0.008887
AG1372   AG        0.199994    0.155100    0.412806     0.008887
AG1373   AG        0.206769    0.199349    0.380809     0.008887
AG1374   AG        0.244154    0.154814    0.380827     0.008887
CU1375   CU        0.245453    0.197218    0.408982     0.006663
CU1376   CU        0.284705    0.165756    0.412488     0.006663
CU1377   CU        0.279561    0.197015    0.375070     0.006663
CU1378   CU        0.317019    0.167010    0.378278     0.006663
CU1379   CU        0.313054    0.204451    0.410271     0.006663
CU1380   CU        0.350374    0.171329    0.415493     0.006663
CU1381   CU        0.349486    0.203135    0.377687     0.006663
CU1382   CU        0.386499    0.169068    0.378621     0.006663
CU1383   CU        0.384741    0.206159    0.410514     0.006663
CU1384   CU        0.420878    0.174223    0.416723     0.006663
CU1385   CU        0.417456    0.204607    0.376269     0.006663
CU1386   CU        0.454352    0.173401    0.382099     0.006663
CU1387   CU        0.455166    0.209595    0.415301     0.006663
CU1388   CU        0.489549    0.173816    0.418913     0.006663
CU1389   CU        0.490648    0.205098    0.379471     0.006663
CU1390   CU        0.522564    0.172791    0.383622     0.006663
CU1391   CU        0.523741    0.209313    0.414171     0.006663
CU1392   CU        0.554993    0.172535    0.418919     0.006663
CU1393   CU        0.560496    0.203039    0.379787     0.006663
CU1394   CU        0.591659    0.169105    0.384270     0.006663
CU1395   CU        0.589518    0.205077    0.417942     0.006663
CU1396   CU        0.625117    0.170730    0.416510     0.006663
CU1397   CU        0.626166    0.202459    0.382412     0.006663
AG1398   AG        0.664016    0.161273    0.388933     0.008887
CU1399   CU        0.661211    0.206186    0.414476     0.006663
AG1400   AG        0.711171    0.152155    0.409335     0.008887
AG1401   AG        0.703838    0.202106    0.387907     0.008887
AG1402   AG        0.753298    0.138506    0.370241     0.008887
AG1403   AG        0.751876    0.186846    0.411846     0.008887
AG1404   AG        0.789891    0.149558    0.416218     0.008887
AG1405   AG        0.793953    0.182147    0.373269     0.008887
AG1406   AG        0.074629    0.218576    0.377090     0.008887
AG1407   AG        0.074832    0.261940    0.414288     0.008887
AG1408   AG        0.118488    0.225440    0.408289     0.008887
AG1409   AG        0.126145    0.269927    0.383487     0.008887
AG1410   AG        0.166381    0.231043    0.382538     0.008887
CU1411   CU        0.167036    0.271423    0.412975     0.006663
CU1412   CU        0.210556    0.238274    0.410882     0.006663
CU1413   CU        0.205401    0.271545    0.375782     0.006663
CU1414   CU        0.241983    0.237213    0.374330     0.006663
CU1415   CU        0.243131    0.272384    0.409553     0.006663
CU1416   CU        0.277931    0.233305    0.406721     0.006663
CU1417   CU        0.277031    0.271518    0.373232     0.006663
CU1418   CU        0.312197    0.232756    0.371799     0.006663
CU1419   CU        0.310048    0.273609    0.409484     0.006663
CU1420   CU        0.343190    0.238804    0.408370     0.006663
CU1421   CU        0.346846    0.273041    0.371347     0.006663
CU1422   CU        0.381611    0.241306    0.378845     0.006663
CU1423   CU        0.378050    0.276960    0.413277     0.006663
CU1424   CU        0.420823    0.241874    0.414223     0.006663
CU1425   CU        0.416741    0.275782    0.377385     0.006663
CU1426   CU        0.452054    0.237273    0.376511     0.006663
CU1427   CU        0.451707    0.273451    0.414497     0.006663
CU1428   CU        0.491892    0.242532    0.412673     0.006663
CU1429   CU        0.486910    0.274007    0.379002     0.006663
CU1430   CU        0.526003    0.241448    0.381532     0.006663
CU1431   CU        0.526356    0.279340    0.412655     0.006663
CU1432   CU        0.557490    0.241298    0.416432     0.006663
CU1433   CU        0.558944    0.277798    0.378970     0.006663
CU1434   CU        0.593499    0.240496    0.381184     0.006663
CU1435   CU        0.591813    0.273715    0.417809     0.006663
CU1436   CU        0.628116    0.240666    0.416284     0.006663
CU1437   CU        0.628874    0.272991    0.376199     0.006663
CU1438   CU        0.662245    0.236953    0.379155     0.006663
CU1439   CU        0.659595    0.277837    0.414047     0.006663
CU1440   CU        0.694794    0.242813    0.415656     0.006663
CU1441   CU        0.696196    0.275700    0.380376     0.006663
AG1442   AG        0.738502    0.237739    0.387146     0.008887
CU1443   CU        0.730004    0.282706    0.414094     0.006663
AG1444   AG        0.785694    0.226533    0.411201     0.008887
AG1445   AG        0.776184    0.275837    0.390094     0.008887
AG1446   AG        0.835276    0.225536    0.381430     0.008887
AG1447   AG        0.825178    0.269563    0.416888     0.008887
AG1448   AG        0.031480    0.260256    0.379872     0.008887
AG1449   AG        0.042699    0.312744    0.356307     0.008887
AG1450   AG        0.080175    0.270733    0.354365     0.008887
AG1451   AG        0.084835    0.309166    0.389086     0.008887
AG1452   AG        0.134270    0.310207    0.415186     0.008887
CU1453   CU        0.127798    0.343571    0.380639     0.006663
CU1454   CU        0.168946    0.307644    0.378862     0.006663
CU1455   CU        0.174368    0.343605    0.409173     0.006663
CU1456   CU        0.208779    0.306248    0.409924     0.006663
CU1457   CU        0.207611    0.338031    0.373727     0.006663
CU1458   CU        0.241090    0.306687    0.375783     0.006663
CU1459   CU        0.241089    0.343678    0.408815     0.006663
CU1460   CU        0.275001    0.307144    0.411610     0.006663
CU1461   CU        0.274858    0.340990    0.375891     0.006663
CU1462   CU        0.310005    0.306618    0.375717     0.006663
CU1463   CU        0.308591    0.344876    0.410044     0.006663
CU1464   CU        0.344096    0.308387    0.408370     0.006663
CU1465   CU        0.345687    0.343403    0.379126     0.006663
CU1466   CU        0.380301    0.310822    0.375431     0.006663
CU1467   CU        0.381337    0.342970    0.413429     0.006663
CU1468   CU        0.418937    0.309457    0.412902     0.006663
CU1469   CU        0.415753    0.346264    0.379308     0.006663
CU1470   CU        0.453149    0.310949    0.382196     0.006663
CU1471   CU        0.452197    0.346133    0.415240     0.006663
CU1472   CU        0.484841    0.310752    0.415678     0.006663
CU1473   CU        0.487626    0.343231    0.379737     0.006663
CU1474   CU        0.523646    0.312088    0.378118     0.006663
CU1475   CU        0.521025    0.343176    0.413333     0.006663
CU1476   CU        0.559277    0.310074    0.415016     0.006663
CU1477   CU        0.555984    0.343397    0.378338     0.006663
CU1478   CU        0.593445    0.309296    0.377991     0.006663
CU1479   CU        0.591261    0.344403    0.413102     0.006663
CU1480   CU        0.624152    0.314040    0.416498     0.006663
CU1481   CU        0.626978    0.344094    0.378970     0.006663
CU1482   CU        0.660285    0.307895    0.381557     0.006663
CU1483   CU        0.657979    0.348060    0.414927     0.006663
CU1484   CU        0.696530    0.313782    0.415177     0.006663
CU1485   CU        0.692821    0.346931    0.382465     0.006663
CU1486   CU        0.731670    0.316737    0.383010     0.006663
CU1487   CU        0.730344    0.351400    0.414362     0.006663
AG1488   AG        0.770536    0.318752    0.417269     0.008887
CU1489   CU        0.765994    0.355994    0.378843     0.006663
AG1490   AG        0.825024    0.277063    0.363004     0.008887
AG1491   AG        0.817559    0.323036    0.398407     0.008887
AG1492   AG        0.867103    0.310090    0.428151     0.008887
AG1493   AG        0.866195    0.316660    0.367745     0.008887
AG1494   AG        0.009992    0.385522    0.399738     0.008887
AG1495   AG        0.055164    0.353605    0.397149     0.008887
AG1496   AG        0.048078    0.395453    0.358409     0.008887
AG1497   AG        0.086172    0.352170    0.350189     0.008887
AG1498   AG        0.089800    0.400176    0.401929     0.008887
CU1499   CU        0.136131    0.379701    0.412460     0.006663
CU1500   CU        0.134994    0.412648    0.379798     0.006663
CU1501   CU        0.170909    0.378596    0.375540     0.006663
CU1502   CU        0.173111    0.412616    0.408402     0.006663
CU1503   CU        0.206948    0.376178    0.408373     0.006663
CU1504   CU        0.208161    0.413211    0.372029     0.006663
CU1505   CU        0.239727    0.376322    0.375419     0.006663
CU1506   CU        0.240540    0.411401    0.407649     0.006663
CU1507   CU        0.276855    0.378712    0.411885     0.006663
CU1508   CU        0.274246    0.413988    0.371930     0.006663
CU1509   CU        0.309079    0.377913    0.374039     0.006663
CU1510   CU        0.310051    0.416981    0.414322     0.006663
CU1511   CU        0.341888    0.377877    0.412935     0.006663
CU1512   CU        0.342865    0.413728    0.378500     0.006663
CU1513   CU        0.377028    0.379512    0.378701     0.006663
CU1514   CU        0.376420    0.411781    0.414010     0.006663
CU1515   CU        0.415257    0.379307    0.414737     0.006663
CU1516   CU        0.415063    0.417626    0.379977     0.006663
CU1517   CU        0.452501    0.382331    0.378738     0.006663
CU1518   CU        0.455620    0.414826    0.412827     0.006663
CU1519   CU        0.486274    0.380831    0.415608     0.006663
CU1520   CU        0.489742    0.413848    0.379324     0.006663
CU1521   CU        0.521728    0.378378    0.378954     0.006663
CU1522   CU        0.520493    0.415445    0.416088     0.006663
CU1523   CU        0.555552    0.377401    0.413512     0.006663
CU1524   CU        0.555712    0.415327    0.382415     0.006663
CU1525   CU        0.589858    0.379478    0.377530     0.006663
CU1526   CU        0.591210    0.415810    0.413985     0.006663
CU1527   CU        0.623874    0.378990    0.410755     0.006663
CU1528   CU        0.624223    0.415215    0.377153     0.006663
CU1529   CU        0.661821    0.385060    0.378232     0.006663
CU1530   CU        0.655111    0.416661    0.413701     0.006663
CU1531   CU        0.691945    0.382484    0.417309     0.006663
CU1532   CU        0.694630    0.418268    0.380485     0.006663
CU1533   CU        0.727971    0.384649    0.379909     0.006663
CU1534   CU        0.727723    0.417543    0.420523     0.006663
CU1535   CU        0.762814    0.384863    0.419053     0.006663
CU1536   CU        0.758716    0.418447    0.385336     0.006663
AG1537   AG        0.813560    0.370393    0.375418     0.008887
AG1538   AG        0.802579    0.415696    0.413150     0.008887
AG1539   AG        0.859958    0.355372    0.403631     0.008887
AG1540   AG        0.851462    0.408093    0.388295     0.008887
AG1541   AG        0.888795    0.397889    0.430388     0.008887
AG1542   AG        0.001833    0.427195    0.354954     0.008887
AG1543   AG        0.007259    0.468908    0.392104     0.008887
AG1544   AG        0.043395    0.429138    0.399412     0.008887
AG1545   AG        0.050234    0.461216    0.355956     0.008887
AG1546   AG        0.095789    0.425130    0.353359     0.008887
AG1547   AG        0.094504    0.458779    0.402374     0.008887
CU1548   CU        0.140654    0.447514    0.409941     0.006663
CU1549   CU        0.140591    0.481705    0.377539     0.006663
CU1550   CU        0.174433    0.446416    0.375439     0.006663
CU1551   CU        0.175562    0.482825    0.410261     0.006663
CU1552   CU        0.206617    0.448609    0.407840     0.006663
CU1553   CU        0.208809    0.481722    0.373527     0.006663
CU1554   CU        0.240212    0.449644    0.373205     0.006663
CU1555   CU        0.243256    0.482840    0.409643     0.006663
CU1556   CU        0.275916    0.450324    0.408908     0.006663
CU1557   CU        0.276755    0.486766    0.378022     0.006663
CU1558   CU        0.309019    0.450604    0.377310     0.006663
CU1559   CU        0.311588    0.484194    0.414859     0.006663
CU1560   CU        0.342828    0.449561    0.417558     0.006663
CU1561   CU        0.346833    0.482785    0.380212     0.006663
CU1562   CU        0.379932    0.448522    0.379646     0.006663
CU1563   CU        0.378506    0.481634    0.414703     0.006663
CU1564   CU        0.417105    0.448531    0.414608     0.006663
CU1565   CU        0.415384    0.483403    0.379735     0.006663
CU1566   CU        0.449328    0.450908    0.378370     0.006663
CU1567   CU        0.451342    0.483263    0.415219     0.006663
CU1568   CU        0.485877    0.449452    0.413946     0.006663
CU1569   CU        0.485492    0.485476    0.378690     0.006663
CU1570   CU        0.520715    0.450810    0.379630     0.006663
CU1571   CU        0.518550    0.484044    0.410051     0.006663
CU1572   CU        0.557337    0.454324    0.414082     0.006663
CU1573   CU        0.556774    0.486542    0.377082     0.006663
CU1574   CU        0.590754    0.450323    0.380093     0.006663
CU1575   CU        0.592945    0.487355    0.414456     0.006663
CU1576   CU        0.623575    0.448963    0.411502     0.006663
CU1577   CU        0.623123    0.488088    0.376736     0.006663
CU1578   CU        0.659065    0.450405    0.380848     0.006663
CU1579   CU        0.654902    0.487914    0.412488     0.006663
CU1580   CU        0.690208    0.454583    0.418880     0.006663
CU1581   CU        0.694180    0.487318    0.381789     0.006663
CU1582   CU        0.727395    0.451985    0.384599     0.006663
CU1583   CU        0.726305    0.487166    0.417827     0.006663
CU1584   CU        0.758231    0.453282    0.417887     0.006663
CU1585   CU        0.762722    0.487863    0.385739     0.006663
AG1586   AG        0.805673    0.483356    0.362782     0.008887
AG1587   AG        0.803496    0.483106    0.412401     0.008887
AG1588   AG        0.845335    0.451151    0.418997     0.008887
AG1589   AG        0.846708    0.508469    0.378133     0.008887
AG1590   AG        0.897003    0.442276    0.397257     0.008887
AG1591   AG        0.878747    0.494813    0.418846     0.008887
AG1592   AG        0.054643    0.497180    0.395939     0.008887
AG1593   AG        0.040373    0.547750    0.388472     0.008887
AG1594   AG        0.096612    0.489877    0.358022     0.008887
AG1595   AG        0.092052    0.534562    0.398986     0.008887
CU1596   CU        0.138221    0.512820    0.414603     0.006663
CU1597   CU        0.137673    0.547891    0.377137     0.006663
CU1598   CU        0.174730    0.520188    0.374501     0.006663
CU1599   CU        0.173495    0.552008    0.408846     0.006663
CU1600   CU        0.208974    0.515727    0.406943     0.006663
CU1601   CU        0.208016    0.554915    0.373302     0.006663
CU1602   CU        0.241207    0.518735    0.374646     0.006663
CU1603   CU        0.238740    0.555901    0.412373     0.006663
CU1604   CU        0.276030    0.521222    0.412643     0.006663
CU1605   CU        0.275717    0.559196    0.378148     0.006663
CU1606   CU        0.311821    0.521081    0.379802     0.006663
CU1607   CU        0.308527    0.556709    0.413607     0.006663
CU1608   CU        0.341982    0.519535    0.414897     0.006663
CU1609   CU        0.346453    0.554924    0.380782     0.006663
CU1610   CU        0.381635    0.517562    0.382306     0.006663
CU1611   CU        0.378332    0.553155    0.417394     0.006663
CU1612   CU        0.414620    0.521387    0.412217     0.006663
CU1613   CU        0.415987    0.554517    0.377943     0.006663
CU1614   CU        0.453119    0.519498    0.381828     0.006663
CU1615   CU        0.449597    0.553730    0.414802     0.006663
CU1616   CU        0.490385    0.519373    0.413992     0.006663
CU1617   CU        0.485744    0.555090    0.378626     0.006663
CU1618   CU        0.523129    0.522884    0.379507     0.006663
CU1619   CU        0.519081    0.557400    0.412977     0.006663
CU1620   CU        0.555262    0.522329    0.414866     0.006663
CU1621   CU        0.556873    0.557218    0.378117     0.006663
CU1622   CU        0.590734    0.524401    0.379585     0.006663
CU1623   CU        0.589775    0.557554    0.415062     0.006663
CU1624   CU        0.623212    0.525838    0.414462     0.006663
CU1625   CU        0.623442    0.562390    0.380226     0.006663
CU1626   CU        0.659287    0.523894    0.378219     0.006663
CU1627   CU        0.659258    0.557709    0.415498     0.006663
CU1628   CU        0.691756    0.521988    0.415610     0.006663
CU1629   CU        0.694889    0.556232    0.380696     0.006663
CU1630   CU        0.725274    0.519320    0.382342     0.006663
CU1631   CU        0.730403    0.553927    0.420001     0.006663
CU1632   CU        0.768572    0.519330    0.419635     0.006663
CU1633   CU        0.766366    0.550996    0.386875     0.006663
AG1634   AG        0.811651    0.545981    0.357980     0.008887
AG1635   AG        0.812439    0.546262    0.409115     0.008887
AG1636   AG        0.849778    0.538378    0.442323     0.008887
AG1637   AG        0.861068    0.556120    0.384504     0.008887
AG1638   AG        0.032131    0.585826    0.427126     0.008887
AG1639   AG        0.081614    0.585189    0.388878     0.008887
AG1640   AG        0.069985    0.627260    0.422162     0.008887
AG1641   AG        0.129879    0.580768    0.412468     0.008887
AG1642   AG        0.116950    0.629394    0.387507     0.008887
CU1643   CU        0.168910    0.588707    0.377218     0.006663
CU1644   CU        0.167324    0.621913    0.412009     0.006663
CU1645   CU        0.202061    0.591274    0.408594     0.006663
CU1646   CU        0.201934    0.625456    0.376013     0.006663
CU1647   CU        0.239314    0.591327    0.378309     0.006663
CU1648   CU        0.239113    0.627194    0.412700     0.006663
CU1649   CU        0.272179    0.588315    0.415815     0.006663
CU1650   CU        0.275041    0.625209    0.377338     0.006663
CU1651   CU        0.313368    0.591638    0.380953     0.006663
CU1652   CU        0.308091    0.623155    0.416592     0.006663
CU1653   CU        0.343229    0.589276    0.414496     0.006663
CU1654   CU        0.345903    0.626592    0.374669     0.006663
CU1655   CU        0.379344    0.590929    0.380074     0.006663
CU1656   CU        0.379278    0.623111    0.412911     0.006663
CU1657   CU        0.417523    0.589912    0.413591     0.006663
CU1658   CU        0.414923    0.625654    0.378306     0.006663
CU1659   CU        0.452869    0.593158    0.379409     0.006663
CU1660   CU        0.450232    0.625748    0.415016     0.006663
CU1661   CU        0.486199    0.591654    0.413113     0.006663
CU1662   CU        0.485607    0.628326    0.380681     0.006663
CU1663   CU        0.520018    0.592006    0.378188     0.006663
CU1664   CU        0.519193    0.625192    0.414189     0.006663
CU1665   CU        0.553770    0.591376    0.418805     0.006663
CU1666   CU        0.553527    0.629064    0.379158     0.006663
CU1667   CU        0.588290    0.594997    0.376693     0.006663
CU1668   CU        0.588034    0.627948    0.415628     0.006663
CU1669   CU        0.624630    0.594049    0.416339     0.006663
CU1670   CU        0.627197    0.627414    0.381493     0.006663
CU1671   CU        0.658583    0.594293    0.381667     0.006663
CU1672   CU        0.660976    0.628654    0.417488     0.006663
CU1673   CU        0.695876    0.593157    0.416840     0.006663
CU1674   CU        0.695956    0.624028    0.382974     0.006663
CU1675   CU        0.730094    0.588431    0.384618     0.006663
CU1676   CU        0.731657    0.622416    0.417202     0.006663
AG1677   AG        0.769693    0.587644    0.418514     0.008887
AG1678   AG        0.779872    0.629336    0.388641     0.008887
AG1679   AG        0.823376    0.596623    0.384355     0.008887
AG1680   AG        0.823616    0.628677    0.428213     0.008887
AG1681   AG        0.860867    0.584835    0.430823     0.008887
AG1682   AG        0.072065    0.662303    0.377957     0.008887
AG1683   AG        0.107563    0.671081    0.422259     0.008887
AG1684   AG        0.114371    0.704219    0.379714     0.008887
AG1685   AG        0.155924    0.667869    0.391943     0.008887
AG1686   AG        0.153103    0.709432    0.421005     0.008887
CU1687   CU        0.205380    0.663546    0.410972     0.006663
AG1688   AG        0.194795    0.701831    0.383475     0.008887
CU1689   CU        0.234816    0.659805    0.375513     0.006663
CU1690   CU        0.240977    0.694867    0.412783     0.006663
CU1691   CU        0.274532    0.659005    0.412221     0.006663
CU1692   CU        0.272119    0.693620    0.379093     0.006663
CU1693   CU        0.307842    0.660277    0.378833     0.006663
CU1694   CU        0.308118    0.694277    0.411608     0.006663
CU1695   CU        0.343064    0.660482    0.411898     0.006663
CU1696   CU        0.344446    0.694709    0.378754     0.006663
CU1697   CU        0.380447    0.663333    0.374003     0.006663
CU1698   CU        0.376258    0.691178    0.416394     0.006663
CU1699   CU        0.412677    0.661845    0.411749     0.006663
CU1700   CU        0.411398    0.695626    0.377705     0.006663
CU1701   CU        0.449992    0.659399    0.377644     0.006663
CU1702   CU        0.445474    0.694830    0.411957     0.006663
CU1703   CU        0.480624    0.660489    0.415041     0.006663
CU1704   CU        0.482767    0.693791    0.379005     0.006663
CU1705   CU        0.518472    0.664796    0.378487     0.006663
CU1706   CU        0.518916    0.697587    0.414767     0.006663
CU1707   CU        0.551893    0.658685    0.415163     0.006663
CU1708   CU        0.555894    0.697973    0.378909     0.006663
CU1709   CU        0.590452    0.662257    0.379207     0.006663
CU1710   CU        0.589513    0.699810    0.411771     0.006663
CU1711   CU        0.625114    0.662004    0.413460     0.006663
CU1712   CU        0.624982    0.698865    0.376462     0.006663
CU1713   CU        0.660074    0.662495    0.378872     0.006663
CU1714   CU        0.657826    0.695826    0.415537     0.006663
CU1715   CU        0.695415    0.662963    0.417690     0.006663
AG1716   AG        0.702080    0.706542    0.395456     0.008887
AG1717   AG        0.739139    0.666736    0.395170     0.008887
AG1718   AG        0.748050    0.710946    0.428347     0.008887
AG1719   AG        0.787688    0.671600    0.426740     0.008887
AG1720   AG        0.786369    0.710305    0.388392     0.008887
AG1721   AG        0.828657    0.671937    0.389953     0.008887
AG1722   AG        0.111373    0.753456    0.405161     0.008887
AG1723   AG        0.160882    0.743238    0.382215     0.008887
AG1724   AG        0.159412    0.794813    0.402712     0.008887
AG1725   AG        0.200689    0.745604    0.421812     0.008887
AG1726   AG        0.172249    0.785273    0.345065     0.008887
AG1727   AG        0.233366    0.736612    0.380663     0.008887
AG1728   AG        0.208494    0.782571    0.387304     0.008887
CU1729   CU        0.274805    0.727727    0.410545     0.006663
AG1730   AG        0.266150    0.776738    0.378666     0.008887
CU1731   CU        0.306950    0.732489    0.376871     0.006663
AG1732   AG        0.303687    0.768445    0.416182     0.008887
CU1733   CU        0.341347    0.731154    0.409731     0.006663
CU1734   CU        0.342556    0.769126    0.381814     0.006663
CU1735   CU        0.377032    0.729420    0.377791     0.006663
CU1736   CU        0.378862    0.764902    0.417280     0.006663
CU1737   CU        0.408759    0.728540    0.411370     0.006663
CU1738   CU        0.409048    0.765821    0.382674     0.006663
CU1739   CU        0.446710    0.729000    0.379373     0.006663
CU1740   CU        0.444379    0.761215    0.417691     0.006663
CU1741   CU        0.479358    0.728019    0.416798     0.006663
CU1742   CU        0.479963    0.764463    0.383554     0.006663
CU1743   CU        0.513846    0.729919    0.377261     0.006663
CU1744   CU        0.513562    0.762729    0.413602     0.006663
CU1745   CU        0.552341    0.729286    0.412883     0.006663
CU1746   CU        0.545554    0.766403    0.377827     0.006663
CU1747   CU        0.585936    0.734198    0.374923     0.006663
AG1748   AG        0.585280    0.774299    0.410268     0.008887
CU1749   CU        0.622135    0.735939    0.415092     0.006663
AG1750   AG        0.636205    0.787128    0.397147     0.008887
AG1751   AG        0.668458    0.746498    0.394765     0.008887
AG1752   AG        0.677780    0.793192    0.433898     0.008887
AG1753   AG        0.710445    0.749003    0.429836     0.008887
AG1754   AG        0.710074    0.786731    0.390762     0.008887
AG1755   AG        0.749751    0.750105    0.390214     0.008887
AG1756   AG        0.753393    0.797870    0.423829     0.008887
AG1757   AG        0.794195    0.755333    0.419036     0.008887
AG1758   AG        0.206120    0.826394    0.353634     0.008887
AG1759   AG        0.243835    0.823646    0.393716     0.008887
AG1760   AG        0.303628    0.814056    0.380776     0.008887
AG1761   AG        0.288736    0.864143    0.395495     0.008887
AG1762   AG        0.339438    0.806427    0.420246     0.008887
AG1763   AG        0.342518    0.851141    0.384201     0.008887
AG1764   AG        0.380694    0.806331    0.387194     0.008887
AG1765   AG        0.377131    0.844391    0.427305     0.008887
AG1766   AG        0.418650    0.804404    0.424090     0.008887
AG1767   AG        0.415009    0.850158    0.392420     0.008887
AG1768   AG        0.457695    0.810067    0.387828     0.008887
AG1769   AG        0.457671    0.847280    0.425939     0.008887
AG1770   AG        0.494722    0.806112    0.430958     0.008887
AG1771   AG        0.462918    0.871395    0.379676     0.008887
AG1772   AG        0.507850    0.809875    0.377273     0.008887
AG1773   AG        0.508648    0.853825    0.408234     0.008887
AG1774   AG        0.546823    0.811331    0.415554     0.008887
AG1775   AG        0.556975    0.867493    0.396795     0.008887
AG1776   AG        0.595767    0.826779    0.395580     0.008887
AG1777   AG        0.598064    0.872109    0.432213     0.008887
AG1778   AG        0.636228    0.832956    0.433775     0.008887
AG1779   AG        0.672199    0.827603    0.390005     0.008887
AG1780   AG        0.418754    0.893627    0.426968     0.008887
AG1781   AG        0.414980    0.898507    0.369381     0.008887
AG1782   AG        0.516107    0.900283    0.432613     0.008887
AG1783   AG        0.269051    0.024684    0.430378     0.008887
AG1784   AG        0.307041    0.033321    0.466082     0.008887
AG1785   AG        0.362628    0.044022    0.455607     0.008887
AG1786   AG        0.406639    0.000769    0.460006     0.008887
AG1787   AG        0.405453    0.043708    0.496937     0.008887
AG1788   AG        0.448403    0.005957    0.500640     0.008887
AG1789   AG        0.411429    0.053810    0.443892     0.008887
AG1790   AG        0.457039    0.011732    0.443379     0.008887
AG1791   AG        0.455192    0.055429    0.479238     0.008887
AG1792   AG        0.500413    0.021077    0.483896     0.008887
AG1793   AG        0.488688    0.054175    0.438062     0.008887
AG1794   AG        0.542897    0.042481    0.452070     0.008887
AG1795   AG        0.546139    0.040489    0.507904     0.008887
AG1796   AG        0.590783    0.038809    0.474227     0.008887
AG1797   AG        0.632002    0.033868    0.510802     0.008887
AG1798   AG        0.637843    0.031345    0.449757     0.008887
AG1799   AG        0.152303    0.095893    0.481397     0.008887
AG1800   AG        0.190454    0.095976    0.431519     0.008887
AG1801   AG        0.230028    0.061360    0.436189     0.008887
AG1802   AG        0.231312    0.110926    0.467494     0.008887
AG1803   AG        0.270368    0.070011    0.472082     0.008887
AG1804   AG        0.283755    0.124275    0.452234     0.008887
AG1805   AG        0.320677    0.083867    0.451708     0.008887
AG1806   AG        0.322098    0.128154    0.488598     0.008887
AG1807   AG        0.362395    0.092045    0.491696     0.008887
CU1808   CU        0.352668    0.137840    0.450571     0.006663
AG1809   AG        0.370574    0.093645    0.438484     0.008887
CU1810   CU        0.384763    0.139620    0.481705     0.006663
AG1811   AG        0.412733    0.099025    0.480087     0.008887
CU1812   CU        0.425222    0.138800    0.446510     0.006663
AG1813   AG        0.446887    0.094956    0.438412     0.008887
CU1814   CU        0.453922    0.133970    0.484174     0.006663
AG1815   AG        0.489620    0.094176    0.477909     0.008887
CU1816   CU        0.487741    0.136942    0.450662     0.006663
AG1817   AG        0.528982    0.089891    0.438004     0.008887
CU1818   CU        0.514461    0.134866    0.488435     0.006663
AG1819   AG        0.545595    0.091765    0.487482     0.008887
CU1820   CU        0.550734    0.132617    0.456587     0.006663
AG1821   AG        0.582073    0.087252    0.448481     0.008887
AG1822   AG        0.592323    0.131266    0.484701     0.008887
AG1823   AG        0.628796    0.080018    0.474489     0.008887
AG1824   AG        0.629997    0.128116    0.446974     0.008887
AG1825   AG        0.677143    0.069608    0.456389     0.008887
AG1826   AG        0.668290    0.121575    0.484410     0.008887
AG1827   AG        0.710571    0.117168    0.449356     0.008887
AG1828   AG        0.759626    0.096940    0.470539     0.008887
AG1829   AG        0.114667    0.137903    0.480601     0.008887
AG1830   AG        0.113548    0.177990    0.439867     0.008887
AG1831   AG        0.150708    0.136800    0.439174     0.008887
AG1832   AG        0.156797    0.182918    0.475480     0.008887
AG1833   AG        0.195715    0.150763    0.468343     0.008887
AG1834   AG        0.206328    0.198087    0.442684     0.008887
AG1835   AG        0.246684    0.160843    0.447445     0.008887
CU1836   CU        0.241486    0.202987    0.479279     0.006663
CU1837   CU        0.279237    0.166127    0.483667     0.006663
CU1838   CU        0.276126    0.202166    0.444967     0.006663
CU1839   CU        0.315143    0.172857    0.447199     0.006663
CU1840   CU        0.312220    0.204414    0.481314     0.006663
CU1841   CU        0.348414    0.174565    0.480827     0.006663
CU1842   CU        0.349234    0.210847    0.443922     0.006663
CU1843   CU        0.385374    0.175683    0.450176     0.006663
CU1844   CU        0.380983    0.209969    0.482123     0.006663
CU1845   CU        0.420375    0.174523    0.482398     0.006663
CU1846   CU        0.422389    0.208770    0.448970     0.006663
CU1847   CU        0.457238    0.171019    0.450826     0.006663
CU1848   CU        0.452897    0.209689    0.484545     0.006663
CU1849   CU        0.487395    0.173242    0.486654     0.006663
CU1850   CU        0.486964    0.206141    0.449720     0.006663
CU1851   CU        0.524155    0.170369    0.454315     0.006663
CU1852   CU        0.523077    0.205295    0.487400     0.006663
CU1853   CU        0.557428    0.168663    0.485480     0.006663
CU1854   CU        0.556437    0.202852    0.455249     0.006663
CU1855   CU        0.593540    0.171883    0.452166     0.006663
CU1856   CU        0.594991    0.206466    0.488129     0.006663
CU1857   CU        0.629519    0.171600    0.488014     0.006663
CU1858   CU        0.628657    0.204071    0.448390     0.006663
AG1859   AG        0.666511    0.165272    0.446232     0.008887
CU1860   CU        0.665652    0.202580    0.487366     0.006663
AG1861   AG        0.706876    0.158470    0.484079     0.008887
AG1862   AG        0.701174    0.201560    0.445117     0.008887
AG1863   AG        0.749805    0.148999    0.452077     0.008887
AG1864   AG        0.741078    0.198046    0.482827     0.008887
AG1865   AG        0.803935    0.134144    0.467036     0.008887
AG1866   AG        0.787757    0.186963    0.453160     0.008887
AG1867   AG        0.031117    0.254817    0.438503     0.008887
AG1868   AG        0.071318    0.217712    0.442162     0.008887
AG1869   AG        0.076065    0.261773    0.472965     0.008887
AG1870   AG        0.119578    0.219896    0.474237     0.008887
AG1871   AG        0.123957    0.264634    0.442264     0.008887
AG1872   AG        0.168012    0.232423    0.447220     0.008887
CU1873   CU        0.169047    0.273156    0.476761     0.006663
CU1874   CU        0.206365    0.237168    0.476023     0.006663
CU1875   CU        0.204000    0.272477    0.445573     0.006663
CU1876   CU        0.246416    0.236836    0.445145     0.006663
CU1877   CU        0.240995    0.270623    0.476863     0.006663
CU1878   CU        0.275274    0.236835    0.482127     0.006663
CU1879   CU        0.276192    0.270996    0.446499     0.006663
CU1880   CU        0.309407    0.239743    0.449581     0.006663
CU1881   CU        0.311438    0.273524    0.483927     0.006663
CU1882   CU        0.343777    0.239855    0.482179     0.006663
CU1883   CU        0.341953    0.274923    0.448369     0.006663
CU1884   CU        0.381815    0.242868    0.448929     0.006663
CU1885   CU        0.378049    0.276910    0.484084     0.006663
CU1886   CU        0.416904    0.242060    0.480684     0.006663
CU1887   CU        0.417665    0.276097    0.448519     0.006663
CU1888   CU        0.453790    0.242624    0.449264     0.006663
CU1889   CU        0.453100    0.273396    0.485910     0.006663
CU1890   CU        0.490235    0.243551    0.484154     0.006663
CU1891   CU        0.488510    0.276790    0.451179     0.006663
CU1892   CU        0.520325    0.240993    0.450353     0.006663
CU1893   CU        0.520958    0.276829    0.488474     0.006663
CU1894   CU        0.555465    0.240988    0.485570     0.006663
CU1895   CU        0.555762    0.274752    0.449613     0.006663
CU1896   CU        0.589524    0.236744    0.453815     0.006663
CU1897   CU        0.595148    0.269765    0.489980     0.006663
CU1898   CU        0.628752    0.237824    0.487589     0.006663
CU1899   CU        0.628787    0.272830    0.451909     0.006663
CU1900   CU        0.661152    0.238652    0.452342     0.006663
CU1901   CU        0.664232    0.276218    0.483253     0.006663
CU1902   CU        0.702305    0.239421    0.484111     0.006663
CU1903   CU        0.696202    0.274869    0.450321     0.006663
AG1904   AG        0.738841    0.236546    0.442551     0.008887
CU1905   CU        0.737198    0.275211    0.486991     0.006663
AG1906   AG        0.780397    0.237948    0.484587     0.008887
AG1907   AG        0.776041    0.272480    0.445905     0.008887
AG1908   AG        0.822416    0.224725    0.456956     0.008887
AG1909   AG        0.817259    0.274767    0.484642     0.008887
AG1910   AG        0.866741    0.259767    0.458324     0.008887
AG1911   AG        0.034536    0.302404    0.475006     0.008887
AG1912   AG        0.038759    0.301997    0.417324     0.008887
AG1913   AG        0.086958    0.305741    0.445146     0.008887
AG1914   AG        0.088214    0.311238    0.497190     0.008887
AG1915   AG        0.134230    0.307975    0.472011     0.008887
CU1916   CU        0.138794    0.347259    0.443248     0.006663
CU1917   CU        0.175997    0.312089    0.443135     0.006663
CU1918   CU        0.174050    0.343032    0.476968     0.006663
CU1919   CU        0.207923    0.307003    0.479274     0.006663
CU1920   CU        0.209009    0.343796    0.444324     0.006663
CU1921   CU        0.239852    0.307105    0.447512     0.006663
CU1922   CU        0.240103    0.343456    0.480419     0.006663
CU1923   CU        0.276709    0.307745    0.482042     0.006663
CU1924   CU        0.274740    0.342246    0.444210     0.006663
CU1925   CU        0.309914    0.311181    0.443142     0.006663
CU1926   CU        0.309651    0.342683    0.483113     0.006663
CU1927   CU        0.341110    0.310164    0.484931     0.006663
CU1928   CU        0.344468    0.344340    0.443982     0.006663
CU1929   CU        0.380168    0.309361    0.447632     0.006663
CU1930   CU        0.379907    0.343857    0.483269     0.006663
CU1931   CU        0.415559    0.305131    0.484954     0.006663
CU1932   CU        0.416735    0.345860    0.446982     0.006663
CU1933   CU        0.449221    0.313544    0.447105     0.006663
CU1934   CU        0.451040    0.345256    0.486637     0.006663
CU1935   CU        0.486713    0.310927    0.486343     0.006663
CU1936   CU        0.486225    0.343892    0.450491     0.006663
CU1937   CU        0.524956    0.310955    0.450819     0.006663
CU1938   CU        0.520699    0.346986    0.484160     0.006663
CU1939   CU        0.557424    0.308254    0.487983     0.006663
CU1940   CU        0.558626    0.344658    0.450026     0.006663
CU1941   CU        0.592530    0.307817    0.453579     0.006663
CU1942   CU        0.592411    0.345639    0.483580     0.006663
CU1943   CU        0.627578    0.310404    0.487063     0.006663
CU1944   CU        0.624603    0.344326    0.452925     0.006663
CU1945   CU        0.660886    0.310394    0.451036     0.006663
CU1946   CU        0.661829    0.344654    0.483427     0.006663
CU1947   CU        0.694889    0.310819    0.484723     0.006663
CU1948   CU        0.695139    0.346701    0.450540     0.006663
CU1949   CU        0.731733    0.311234    0.448353     0.006663
CU1950   CU        0.729515    0.343047    0.484560     0.006663
AG1951   AG        0.771038    0.312383    0.486037     0.008887
CU1952   CU        0.765450    0.351790    0.452451     0.006663
AG1953   AG        0.816898    0.315530    0.449179     0.008887
AG1954   AG        0.802801    0.353490    0.484129     0.008887
AG1955   AG        0.860008    0.311303    0.482644     0.008887
AG1956   AG        0.850934    0.358580    0.458997     0.008887
AG1957   AG        0.014777    0.346779    0.438906     0.008887
AG1958   AG        0.006593    0.388433    0.478971     0.008887
AG1959   AG        0.047306    0.350828    0.486425     0.008887
AG1960   AG        0.051224    0.394940    0.443718     0.008887
AG1961   AG        0.090894    0.360810    0.446107     0.008887
AG1962   AG        0.089056    0.393066    0.487499     0.008887
CU1963   CU        0.137834    0.378983    0.479809     0.006663
CU1964   CU        0.141219    0.415757    0.446120     0.006663
CU1965   CU        0.175547    0.377493    0.443142     0.006663
CU1966   CU        0.173440    0.413799    0.478232     0.006663
CU1967   CU        0.210575    0.380484    0.480759     0.006663
CU1968   CU        0.209090    0.412934    0.444111     0.006663
CU1969   CU        0.241734    0.377821    0.446116     0.006663
CU1970   CU        0.241343    0.413334    0.481332     0.006663
CU1971   CU        0.276250    0.377410    0.483061     0.006663
CU1972   CU        0.273332    0.411361    0.445220     0.006663
CU1973   CU        0.310351    0.376198    0.448112     0.006663
CU1974   CU        0.308130    0.411699    0.482404     0.006663
CU1975   CU        0.345438    0.377560    0.484527     0.006663
CU1976   CU        0.339833    0.413740    0.447984     0.006663
CU1977   CU        0.377362    0.377509    0.445586     0.006663
CU1978   CU        0.380394    0.410760    0.480577     0.006663
CU1979   CU        0.413767    0.376552    0.481986     0.006663
CU1980   CU        0.413821    0.414201    0.449242     0.006663
CU1981   CU        0.452179    0.379081    0.451997     0.006663
CU1982   CU        0.446207    0.413429    0.485217     0.006663
CU1983   CU        0.486650    0.380840    0.485802     0.006663
CU1984   CU        0.485853    0.416160    0.451544     0.006663
CU1985   CU        0.523457    0.382004    0.448546     0.006663
CU1986   CU        0.519860    0.416699    0.481705     0.006663
CU1987   CU        0.555963    0.379762    0.485208     0.006663
CU1988   CU        0.556486    0.417481    0.444328     0.006663
CU1989   CU        0.591559    0.380158    0.450711     0.006663
CU1990   CU        0.590461    0.417637    0.483568     0.006663
CU1991   CU        0.622421    0.381148    0.489693     0.006663
CU1992   CU        0.622951    0.415163    0.449339     0.006663
CU1993   CU        0.656990    0.382033    0.450914     0.006663
CU1994   CU        0.654871    0.416069    0.487760     0.006663
CU1995   CU        0.689534    0.382111    0.485479     0.006663
CU1996   CU        0.689332    0.416605    0.450116     0.006663
CU1997   CU        0.725971    0.381881    0.452677     0.006663
CU1998   CU        0.728153    0.419792    0.485121     0.006663
CU1999   CU        0.762002    0.384972    0.484432     0.006663
CU2000   CU        0.762401    0.418370    0.452147     0.006663
AG2001   AG        0.806319    0.364895    0.428365     0.008887
AG2002   AG        0.805650    0.403154    0.495158     0.008887
AG2003   AG        0.879768    0.396662    0.485510     0.008887
AG2004   AG        0.839977    0.405418    0.453328     0.008887
AG2005   AG        0.902843    0.348107    0.467341     0.008887
AG2006   AG        0.891714    0.436428    0.526185     0.008887
AG2007   AG        0.010312    0.436961    0.440892     0.008887
AG2008   AG        0.012057    0.468905    0.485640     0.008887
AG2009   AG        0.046425    0.427567    0.484548     0.008887
AG2010   AG        0.054945    0.467963    0.443305     0.008887
AG2011   AG        0.092687    0.428730    0.447900     0.008887
AG2012   AG        0.090980    0.468939    0.494747     0.008887
CU2013   CU        0.138019    0.446080    0.480855     0.006663
CU2014   CU        0.136797    0.478644    0.445727     0.006663
CU2015   CU        0.174822    0.448317    0.444604     0.006663
CU2016   CU        0.171697    0.484347    0.479531     0.006663
CU2017   CU        0.207379    0.451503    0.479825     0.006663
CU2018   CU        0.207011    0.483117    0.444606     0.006663
CU2019   CU        0.238422    0.446605    0.444661     0.006663
CU2020   CU        0.242150    0.486361    0.479651     0.006663
CU2021   CU        0.272227    0.449023    0.477979     0.006663
CU2022   CU        0.274752    0.483838    0.446070     0.006663
CU2023   CU        0.308404    0.450271    0.449102     0.006663
CU2024   CU        0.308014    0.487354    0.484901     0.006663
CU2025   CU        0.344524    0.445205    0.485064     0.006663
CU2026   CU        0.342669    0.482121    0.453897     0.006663
CU2027   CU        0.378400    0.449804    0.448920     0.006663
CU2028   CU        0.379438    0.484733    0.486593     0.006663
CU2029   CU        0.416320    0.452079    0.487679     0.006663
CU2030   CU        0.414612    0.482976    0.447630     0.006663
CU2031   CU        0.450332    0.451642    0.452521     0.006663
CU2032   CU        0.451848    0.486412    0.484249     0.006663
CU2033   CU        0.484725    0.451675    0.485230     0.006663
CU2034   CU        0.487518    0.487118    0.452141     0.006663
CU2035   CU        0.519224    0.451349    0.448698     0.006663
CU2036   CU        0.519634    0.486147    0.486727     0.006663
CU2037   CU        0.555714    0.449988    0.482611     0.006663
CU2038   CU        0.554901    0.485560    0.451199     0.006663
CU2039   CU        0.591800    0.451501    0.449043     0.006663
CU2040   CU        0.589516    0.485955    0.485627     0.006663
CU2041   CU        0.626071    0.452341    0.483407     0.006663
CU2042   CU        0.623168    0.489152    0.449665     0.006663
CU2043   CU        0.656350    0.454330    0.448724     0.006663
CU2044   CU        0.657204    0.488735    0.486921     0.006663
CU2045   CU        0.690269    0.452642    0.483200     0.006663
CU2046   CU        0.689612    0.489759    0.446267     0.006663
CU2047   CU        0.724568    0.451823    0.452250     0.006663
CU2048   CU        0.725439    0.487316    0.485208     0.006663
CU2049   CU        0.763101    0.451862    0.483407     0.006663
CU2050   CU        0.759700    0.486628    0.451513     0.006663
AG2051   AG        0.803824    0.450107    0.455829     0.008887
AG2052   AG        0.804921    0.482450    0.499673     0.008887
AG2053   AG        0.844287    0.441795    0.495216     0.008887
AG2054   AG        0.845538    0.485178    0.463321     0.008887
AG2055   AG        0.887500    0.444721    0.456228     0.008887
AG2056   AG        0.884350    0.479171    0.504888     0.008887
AG2057   AG        0.009786    0.500500    0.434958     0.008887
AG2058   AG        0.047503    0.507891    0.488292     0.008887
AG2059   AG        0.049987    0.535377    0.442501     0.008887
AG2060   AG        0.093661    0.502746    0.448738     0.008887
AG2061   AG        0.089810    0.541029    0.485289     0.008887
CU2062   CU        0.133966    0.513266    0.479458     0.006663
CU2063   CU        0.136513    0.546857    0.444732     0.006663
CU2064   CU        0.175585    0.519510    0.445459     0.006663
CU2065   CU        0.166730    0.556346    0.481948     0.006663
CU2066   CU        0.209984    0.518607    0.482367     0.006663
CU2067   CU        0.203040    0.557385    0.446745     0.006663
CU2068   CU        0.238493    0.520061    0.442746     0.006663
CU2069   CU        0.237918    0.556216    0.480772     0.006663
CU2070   CU        0.272262    0.519986    0.481232     0.006663
CU2071   CU        0.276104    0.553493    0.450006     0.006663
CU2072   CU        0.309166    0.519510    0.450784     0.006663
CU2073   CU        0.310762    0.557928    0.486762     0.006663
CU2074   CU        0.345649    0.519837    0.486238     0.006663
CU2075   CU        0.340939    0.555394    0.449358     0.006663
CU2076   CU        0.378469    0.518410    0.450450     0.006663
CU2077   CU        0.380586    0.554725    0.484756     0.006663
CU2078   CU        0.413356    0.517393    0.484418     0.006663
CU2079   CU        0.414055    0.555471    0.451664     0.006663
CU2080   CU        0.447597    0.517610    0.448584     0.006663
CU2081   CU        0.449071    0.556363    0.488256     0.006663
CU2082   CU        0.487181    0.520577    0.485417     0.006663
CU2083   CU        0.483545    0.554416    0.451064     0.006663
CU2084   CU        0.519860    0.523160    0.451891     0.006663
CU2085   CU        0.518306    0.557974    0.485758     0.006663
CU2086   CU        0.554875    0.522981    0.482291     0.006663
CU2087   CU        0.552489    0.556777    0.448474     0.006663
CU2088   CU        0.589168    0.524330    0.450610     0.006663
CU2089   CU        0.587823    0.557130    0.485832     0.006663
CU2090   CU        0.623313    0.523559    0.485272     0.006663
CU2091   CU        0.621275    0.557530    0.451753     0.006663
CU2092   CU        0.656208    0.527245    0.449577     0.006663
CU2093   CU        0.656699    0.556232    0.489411     0.006663
CU2094   CU        0.689452    0.521453    0.482469     0.006663
CU2095   CU        0.691222    0.560317    0.453434     0.006663
CU2096   CU        0.727053    0.524046    0.453846     0.006663
CU2097   CU        0.726574    0.556032    0.484193     0.006663
CU2098   CU        0.759477    0.519390    0.487610     0.006663
CU2099   CU        0.764974    0.553768    0.455416     0.006663
AG2100   AG        0.801115    0.516716    0.457091     0.008887
AG2101   AG        0.805414    0.551919    0.497784     0.008887
AG2102   AG        0.844080    0.521463    0.509290     0.008887
AG2103   AG        0.852913    0.580241    0.485327     0.008887
AG2104   AG        0.891311    0.524003    0.474132     0.008887
AG2105   AG        0.045578    0.576230    0.478839     0.008887
AG2106   AG        0.026407    0.631165    0.465498     0.008887
AG2107   AG        0.086700    0.573090    0.439387     0.008887
AG2108   AG        0.081193    0.622950    0.470545     0.008887
AG2109   AG        0.128511    0.583619    0.475359     0.008887
AG2110   AG        0.125069    0.626469    0.442643     0.008887
CU2111   CU        0.168442    0.585655    0.442771     0.006663
CU2112   CU        0.164893    0.626183    0.481031     0.006663
CU2113   CU        0.199836    0.593144    0.482063     0.006663
CU2114   CU        0.201085    0.627161    0.446207     0.006663
CU2115   CU        0.238223    0.592066    0.445937     0.006663
CU2116   CU        0.238230    0.623866    0.484890     0.006663
CU2117   CU        0.271609    0.588787    0.483694     0.006663
CU2118   CU        0.273318    0.622790    0.450536     0.006663
CU2119   CU        0.309297    0.589422    0.449668     0.006663
CU2120   CU        0.308121    0.622482    0.488674     0.006663
CU2121   CU        0.344633    0.592302    0.486048     0.006663
CU2122   CU        0.342915    0.623699    0.450195     0.006663
CU2123   CU        0.378048    0.590531    0.448633     0.006663
CU2124   CU        0.378170    0.627103    0.486383     0.006663
CU2125   CU        0.411683    0.592739    0.489239     0.006663
CU2126   CU        0.413035    0.623225    0.449057     0.006663
CU2127   CU        0.451517    0.590825    0.450749     0.006663
CU2128   CU        0.445823    0.626001    0.486119     0.006663
CU2129   CU        0.483948    0.593727    0.485702     0.006663
CU2130   CU        0.484469    0.622771    0.448640     0.006663
CU2131   CU        0.520554    0.590992    0.452057     0.006663
CU2132   CU        0.518911    0.626644    0.489761     0.006663
CU2133   CU        0.555445    0.591011    0.488384     0.006663
CU2134   CU        0.554035    0.627569    0.452265     0.006663
CU2135   CU        0.588103    0.592988    0.451062     0.006663
CU2136   CU        0.588758    0.626597    0.486718     0.006663
CU2137   CU        0.624085    0.593771    0.488066     0.006663
CU2138   CU        0.626590    0.628332    0.452169     0.006663
CU2139   CU        0.654669    0.591533    0.453288     0.006663
CU2140   CU        0.659391    0.628554    0.485159     0.006663
CU2141   CU        0.691681    0.593904    0.486497     0.006663
CU2142   CU        0.694280    0.627197    0.451622     0.006663
CU2143   CU        0.729914    0.591957    0.452060     0.006663
CU2144   CU        0.731195    0.625839    0.488271     0.006663
AG2145   AG        0.768981    0.590765    0.489794     0.008887
AG2146   AG        0.773297    0.626818    0.450907     0.008887
AG2147   AG        0.810422    0.582224    0.451159     0.008887
AG2148   AG        0.813332    0.624549    0.486882     0.008887
AG2149   AG        0.862653    0.627867    0.517507     0.008887
AG2150   AG        0.865429    0.633628    0.464274     0.008887
AG2151   AG        0.064913    0.675930    0.454465     0.008887
AG2152   AG        0.115088    0.667238    0.477629     0.008887
AG2153   AG        0.105423    0.716148    0.448808     0.008887
AG2154   AG        0.164327    0.663856    0.448328     0.008887
AG2155   AG        0.156592    0.709825    0.472228     0.008887
CU2156   CU        0.206608    0.658510    0.482130     0.006663
AG2157   AG        0.204999    0.698155    0.446695     0.008887
CU2158   CU        0.237827    0.659218    0.447052     0.006663
CU2159   CU        0.242658    0.693880    0.482962     0.006663
CU2160   CU        0.275267    0.655591    0.484423     0.006663
CU2161   CU        0.275329    0.692816    0.447285     0.006663
CU2162   CU        0.307847    0.656585    0.448413     0.006663
CU2163   CU        0.306714    0.689967    0.485308     0.006663
CU2164   CU        0.339649    0.657905    0.483640     0.006663
CU2165   CU        0.342315    0.692526    0.445742     0.006663
CU2166   CU        0.373313    0.659362    0.452060     0.006663
CU2167   CU        0.372487    0.695113    0.481549     0.006663
CU2168   CU        0.412387    0.657778    0.482146     0.006663
CU2169   CU        0.409899    0.691785    0.450380     0.006663
CU2170   CU        0.447552    0.658299    0.447704     0.006663
CU2171   CU        0.444142    0.691843    0.480053     0.006663
CU2172   CU        0.481816    0.659577    0.483119     0.006663
CU2173   CU        0.483133    0.693613    0.451413     0.006663
CU2174   CU        0.515480    0.656668    0.446115     0.006663
CU2175   CU        0.516579    0.694043    0.487441     0.006663
CU2176   CU        0.551918    0.657375    0.485840     0.006663
CU2177   CU        0.551431    0.695011    0.451354     0.006663
CU2178   CU        0.587274    0.661839    0.451604     0.006663
CU2179   CU        0.584476    0.698823    0.485557     0.006663
CU2180   CU        0.626503    0.661553    0.485809     0.006663
CU2181   CU        0.621606    0.696011    0.446712     0.006663
CU2182   CU        0.659969    0.662080    0.452837     0.006663
CU2183   CU        0.654316    0.700774    0.485928     0.006663
CU2184   CU        0.697243    0.661260    0.485449     0.006663
AG2185   AG        0.694300    0.699987    0.452604     0.008887
AG2186   AG        0.735620    0.661612    0.449041     0.008887
AG2187   AG        0.739602    0.706620    0.479066     0.008887
AG2188   AG        0.779021    0.666489    0.483946     0.008887
AG2189   AG        0.790833    0.715695    0.461612     0.008887
AG2190   AG        0.827139    0.675902    0.465667     0.008887
AG2191   AG        0.109885    0.758225    0.483764     0.008887
AG2192   AG        0.150558    0.757816    0.441691     0.008887
AG2193   AG        0.150782    0.798002    0.480632     0.008887
AG2194   AG        0.195385    0.745448    0.480249     0.008887
AG2195   AG        0.196723    0.795058    0.445723     0.008887
AG2196   AG        0.244211    0.737119    0.455446     0.008887
AG2197   AG        0.235581    0.785534    0.482527     0.008887
CU2198   CU        0.280953    0.733002    0.488430     0.006663
AG2199   AG        0.249175    0.780018    0.424191     0.008887
CU2200   CU        0.305035    0.729357    0.447567     0.006663
AG2201   AG        0.284955    0.776871    0.464245     0.008887
CU2202   CU        0.339099    0.726212    0.479801     0.006663
CU2203   CU        0.339867    0.763674    0.450117     0.006663
CU2204   CU        0.375876    0.728681    0.446976     0.006663
CU2205   CU        0.372415    0.760454    0.485160     0.006663
CU2206   CU        0.411028    0.724654    0.482200     0.006663
CU2207   CU        0.407080    0.762880    0.452618     0.006663
CU2208   CU        0.444754    0.727127    0.449312     0.006663
CU2209   CU        0.441668    0.761209    0.485807     0.006663
CU2210   CU        0.476582    0.728257    0.485633     0.006663
CU2211   CU        0.479124    0.763237    0.452718     0.006663
CU2212   CU        0.516148    0.731272    0.449483     0.006663
CU2213   CU        0.513212    0.759986    0.481814     0.006663
CU2214   CU        0.549150    0.731161    0.482804     0.006663
CU2215   CU        0.549495    0.767741    0.442965     0.006663
CU2216   CU        0.585031    0.731403    0.446292     0.006663
AG2217   AG        0.582963    0.767172    0.479578     0.008887
CU2218   CU        0.618115    0.733061    0.483025     0.006663
AG2219   AG        0.625954    0.778042    0.448710     0.008887
AG2220   AG        0.660468    0.737222    0.448234     0.008887
AG2221   AG        0.665476    0.784910    0.485705     0.008887
AG2222   AG        0.703877    0.746091    0.484218     0.008887
AG2223   AG        0.718569    0.794188    0.469057     0.008887
AG2224   AG        0.758400    0.757287    0.461408     0.008887
AG2225   AG        0.759104    0.802975    0.502931     0.008887
AG2226   AG        0.797666    0.760686    0.501352     0.008887
AG2227   AG        0.236206    0.833031    0.451531     0.008887
AG2228   AG        0.273815    0.826409    0.488785     0.008887
AG2229   AG        0.274562    0.873917    0.452717     0.008887
AG2230   AG        0.283786    0.819858    0.430050     0.008887
AG2231   AG        0.318472    0.861505    0.491201     0.008887
AG2232   AG        0.325616    0.811200    0.472005     0.008887
AG2233   AG        0.325020    0.856599    0.438022     0.008887
AG2234   AG        0.377944    0.803595    0.461707     0.008887
AG2235   AG        0.371461    0.848799    0.491067     0.008887
AG2236   AG        0.413944    0.813516    0.501125     0.008887
AG2237   AG        0.416944    0.847541    0.459556     0.008887
AG2238   AG        0.454044    0.805137    0.464622     0.008887
AG2239   AG        0.456293    0.848423    0.500301     0.008887
AG2240   AG        0.497113    0.806266    0.504878     0.008887
AG2241   AG        0.495813    0.850614    0.466087     0.008887
AG2242   AG        0.533004    0.812246    0.467515     0.008887
AG2243   AG        0.539694    0.855064    0.499792     0.008887
AG2244   AG        0.573482    0.812371    0.505808     0.008887
AG2245   AG        0.545269    0.858661    0.448352     0.008887
AG2246   AG        0.584573    0.816746    0.451306     0.008887
AG2247   AG        0.586550    0.862227    0.485728     0.008887
AG2248   AG        0.623509    0.822110    0.490618     0.008887
AG2249   AG        0.640404    0.872928    0.478565     0.008887
AG2250   AG        0.676204    0.835307    0.472055     0.008887
AG2251   AG        0.367205    0.892263    0.452145     0.008887
AG2252   AG        0.411151    0.887770    0.498523     0.008887
AG2253   AG        0.458520    0.890501    0.461514     0.008887
AG2254   AG        0.500166    0.900681    0.497060     0.008887
AG2255   AG        0.549993    0.909360    0.475313     0.008887
AG2256   AG        0.313496    0.039012    0.550101     0.008887
AG2257   AG        0.351858    0.036430    0.509726     0.008887
AG2258   AG        0.390985    0.038134    0.548583     0.008887
AG2259   AG        0.448572    0.048481    0.536665     0.008887
AG2260   AG        0.494026    0.009956    0.536486     0.008887
AG2261   AG        0.484240    0.039071    0.580022     0.008887
AG2262   AG        0.498071    0.063564    0.527704     0.008887
AG2263   AG        0.537112    0.037651    0.569439     0.008887
AG2264   AG        0.587112    0.032050    0.545035     0.008887
AG2265   AG        0.623849    0.029229    0.585154     0.008887
AG2266   AG        0.195474    0.113046    0.509920     0.008887
AG2267   AG        0.234471    0.072891    0.515504     0.008887
AG2268   AG        0.235879    0.115718    0.548059     0.008887
AG2269   AG        0.279299    0.081535    0.547840     0.008887
AG2270   AG        0.273766    0.114519    0.504398     0.008887
AG2271   AG        0.312421    0.076966    0.507053     0.008887
AG2272   AG        0.315171    0.123500    0.543287     0.008887
AG2273   AG        0.350373    0.080808    0.546056     0.008887
CU2274   CU        0.365424    0.131310    0.525682     0.006663
AG2275   AG        0.404480    0.086913    0.531643     0.008887
CU2276   CU        0.401354    0.132008    0.568757     0.006663
AG2277   AG        0.448519    0.084623    0.574553     0.008887
CU2278   CU        0.416023    0.138205    0.514584     0.006663
AG2279   AG        0.454430    0.098405    0.522038     0.008887
CU2280   CU        0.444041    0.136518    0.554340     0.006663
AG2281   AG        0.512666    0.087759    0.579455     0.008887
CU2282   CU        0.482420    0.137183    0.522245     0.006663
AG2283   AG        0.548286    0.087030    0.539831     0.008887
CU2284   CU        0.517207    0.132587    0.551513     0.006663
AG2285   AG        0.588372    0.078620    0.575946     0.008887
CU2286   CU        0.551100    0.134388    0.519384     0.006663
AG2287   AG        0.590635    0.076873    0.513164     0.008887
AG2288   AG        0.590371    0.124224    0.547363     0.008887
AG2289   AG        0.632895    0.070672    0.550143     0.008887
AG2290   AG        0.632182    0.120445    0.521050     0.008887
AG2291   AG        0.678572    0.068823    0.508261     0.008887
AG2292   AG        0.677990    0.111510    0.548739     0.008887
AG2293   AG        0.716393    0.105425    0.504767     0.008887
AG2294   AG        0.115635    0.182647    0.511245     0.008887
AG2295   AG        0.154753    0.146479    0.519857     0.008887
AG2296   AG        0.160818    0.195549    0.544235     0.008887
AG2297   AG        0.198654    0.154684    0.548987     0.008887
AG2298   AG        0.204101    0.196872    0.514183     0.008887
AG2299   AG        0.235059    0.154766    0.503456     0.008887
CU2300   CU        0.241446    0.195182    0.551048     0.006663
AG2301   AG        0.271402    0.157662    0.542955     0.008887
CU2302   CU        0.272764    0.200825    0.515112     0.006663
CU2303   CU        0.313615    0.169439    0.518070     0.006663
CU2304   CU        0.311586    0.200170    0.552625     0.006663
CU2305   CU        0.351497    0.166627    0.550244     0.006663
CU2306   CU        0.345836    0.203891    0.516724     0.006663
CU2307   CU        0.383952    0.176035    0.513616     0.006663
CU2308   CU        0.381341    0.206924    0.552798     0.006663
CU2309   CU        0.413617    0.173807    0.550102     0.006663
CU2310   CU        0.416247    0.209198    0.518790     0.006663
CU2311   CU        0.450961    0.174848    0.519815     0.006663
CU2312   CU        0.450743    0.205217    0.557561     0.006663
CU2313   CU        0.481375    0.169110    0.554401     0.006663
CU2314   CU        0.484356    0.207212    0.522138     0.006663
CU2315   CU        0.521207    0.171671    0.522044     0.006663
CU2316   CU        0.522379    0.203672    0.556058     0.006663
CU2317   CU        0.555026    0.165975    0.557473     0.006663
CU2318   CU        0.558336    0.205383    0.523007     0.006663
CU2319   CU        0.587293    0.167216    0.522634     0.006663
CU2320   CU        0.591043    0.203341    0.558040     0.006663
AG2321   AG        0.627933    0.167408    0.551908     0.008887
CU2322   CU        0.632481    0.205802    0.521995     0.006663
AG2323   AG        0.667965    0.162623    0.521992     0.008887
CU2324   CU        0.664276    0.203261    0.558743     0.006663
AG2325   AG        0.717826    0.149144    0.544953     0.008887
AG2326   AG        0.704008    0.201221    0.521154     0.008887
AG2327   AG        0.758366    0.141903    0.507175     0.008887
AG2328   AG        0.754012    0.187900    0.542569     0.008887
AG2329   AG        0.797842    0.185013    0.505477     0.008887
AG2330   AG        0.075017    0.219987    0.507953     0.008887
AG2331   AG        0.076408    0.236296    0.571902     0.008887
AG2332   AG        0.118047    0.229344    0.539116     0.008887
AG2333   AG        0.125189    0.264676    0.500638     0.008887
AG2334   AG        0.163523    0.231885    0.505007     0.008887
AG2335   AG        0.164132    0.273347    0.543134     0.008887
CU2336   CU        0.199220    0.236248    0.552416     0.006663
CU2337   CU        0.202322    0.270035    0.512478     0.006663
CU2338   CU        0.237244    0.237053    0.510795     0.006663
CU2339   CU        0.236691    0.272031    0.549125     0.006663
CU2340   CU        0.270358    0.232393    0.548053     0.006663
CU2341   CU        0.274740    0.269923    0.517994     0.006663
CU2342   CU        0.307844    0.236726    0.518052     0.006663
CU2343   CU        0.305378    0.269976    0.552656     0.006663
CU2344   CU        0.344193    0.235187    0.552229     0.006663
CU2345   CU        0.342123    0.271889    0.518680     0.006663
CU2346   CU        0.376985    0.241914    0.517149     0.006663
CU2347   CU        0.380391    0.275373    0.552810     0.006663
CU2348   CU        0.414798    0.239304    0.554180     0.006663
CU2349   CU        0.416082    0.275002    0.519623     0.006663
CU2350   CU        0.450482    0.241357    0.522537     0.006663
CU2351   CU        0.451730    0.275149    0.556420     0.006663
CU2352   CU        0.485827    0.238945    0.557961     0.006663
CU2353   CU        0.485526    0.276976    0.520766     0.006663
CU2354   CU        0.524054    0.238511    0.521501     0.006663
CU2355   CU        0.525407    0.273023    0.556058     0.006663
CU2356   CU        0.560367    0.240196    0.559850     0.006663
CU2357   CU        0.559854    0.272889    0.523022     0.006663
CU2358   CU        0.595563    0.237300    0.525828     0.006663
CU2359   CU        0.595461    0.277457    0.558207     0.006663
CU2360   CU        0.628117    0.237756    0.558721     0.006663
CU2361   CU        0.630113    0.275594    0.521903     0.006663
CU2362   CU        0.667836    0.238312    0.521563     0.006663
CU2363   CU        0.664363    0.277818    0.557850     0.006663
CU2364   CU        0.698864    0.241461    0.563763     0.006663
CU2365   CU        0.699450    0.275099    0.519454     0.006663
AG2366   AG        0.739510    0.238064    0.522636     0.008887
AG2367   AG        0.735503    0.278979    0.554184     0.008887
AG2368   AG        0.792126    0.227092    0.543597     0.008887
AG2369   AG        0.780568    0.271696    0.523030     0.008887
AG2370   AG        0.832492    0.227634    0.507687     0.008887
AG2371   AG        0.833981    0.268414    0.547274     0.008887
AG2372   AG        0.037500    0.276054    0.571234     0.008887
AG2373   AG        0.042085    0.312627    0.529683     0.008887
AG2374   AG        0.075563    0.268655    0.530268     0.008887
AG2375   AG        0.077634    0.310889    0.571136     0.008887
AG2376   AG        0.122626    0.302957    0.538126     0.008887
CU2377   CU        0.135088    0.341946    0.508198     0.006663
CU2378   CU        0.168145    0.310983    0.510048     0.006663
CU2379   CU        0.165633    0.343369    0.549262     0.006663
CU2380   CU        0.202955    0.308808    0.550778     0.006663
CU2381   CU        0.202262    0.342540    0.514061     0.006663
CU2382   CU        0.237747    0.306574    0.515686     0.006663
CU2383   CU        0.237414    0.341496    0.550660     0.006663
CU2384   CU        0.274588    0.305397    0.552126     0.006663
CU2385   CU        0.271910    0.339822    0.514757     0.006663
CU2386   CU        0.306038    0.307495    0.519899     0.006663
CU2387   CU        0.304612    0.342201    0.551272     0.006663
CU2388   CU        0.339707    0.307630    0.553254     0.006663
CU2389   CU        0.344000    0.342792    0.518936     0.006663
CU2390   CU        0.376627    0.310724    0.519641     0.006663
CU2391   CU        0.378616    0.340943    0.554348     0.006663
CU2392   CU        0.417163    0.312131    0.554333     0.006663
CU2393   CU        0.414157    0.342211    0.517591     0.006663
CU2394   CU        0.450068    0.307467    0.520449     0.006663
CU2395   CU        0.450012    0.343443    0.554220     0.006663
CU2396   CU        0.485111    0.309122    0.556330     0.006663
CU2397   CU        0.486017    0.346678    0.522649     0.006663
CU2398   CU        0.523526    0.309496    0.521496     0.006663
CU2399   CU        0.520422    0.346443    0.555408     0.006663
CU2400   CU        0.557567    0.310029    0.556156     0.006663
CU2401   CU        0.554176    0.347068    0.521445     0.006663
CU2402   CU        0.592929    0.309904    0.521305     0.006663
CU2403   CU        0.592842    0.343098    0.553051     0.006663
CU2404   CU        0.627304    0.312097    0.558134     0.006663
CU2405   CU        0.625456    0.343082    0.517732     0.006663
CU2406   CU        0.661516    0.311758    0.519917     0.006663
CU2407   CU        0.660536    0.347526    0.556649     0.006663
CU2408   CU        0.695351    0.316316    0.552434     0.006663
CU2409   CU        0.692809    0.349391    0.519092     0.006663
CU2410   CU        0.728554    0.314846    0.519625     0.006663
CU2411   CU        0.730389    0.349790    0.551213     0.006663
AG2412   AG        0.772183    0.319981    0.550186     0.008887
CU2413   CU        0.763626    0.352522    0.516247     0.006663
AG2414   AG        0.817590    0.313988    0.521473     0.008887
AG2415   AG        0.819852    0.324066    0.578176     0.008887
AG2416   AG        0.871801    0.313891    0.553880     0.008887
AG2417   AG        0.864611    0.350618    0.516099     0.008887
AG2418   AG        0.042531    0.352604    0.562546     0.008887
AG2419   AG        0.049853    0.393953    0.525105     0.008887
AG2420   AG        0.085893    0.353240    0.528587     0.008887
AG2421   AG        0.083828    0.389399    0.567722     0.008887
CU2422   CU        0.133695    0.379821    0.546209     0.006663
CU2423   CU        0.135788    0.412049    0.513672     0.006663
CU2424   CU        0.172306    0.381435    0.512532     0.006663
CU2425   CU        0.169416    0.411631    0.546905     0.006663
CU2426   CU        0.201460    0.375596    0.549293     0.006663
CU2427   CU        0.206488    0.416041    0.514775     0.006663
CU2428   CU        0.240115    0.377743    0.519346     0.006663
CU2429   CU        0.237421    0.413100    0.552839     0.006663
CU2430   CU        0.273519    0.379915    0.550038     0.006663
CU2431   CU        0.274258    0.415074    0.514811     0.006663
CU2432   CU        0.310615    0.378056    0.519066     0.006663
CU2433   CU        0.310461    0.412999    0.551375     0.006663
CU2434   CU        0.344595    0.376312    0.552441     0.006663
CU2435   CU        0.342547    0.411318    0.519889     0.006663
CU2436   CU        0.379996    0.379733    0.518754     0.006663
CU2437   CU        0.378152    0.415453    0.552019     0.006663
CU2438   CU        0.412340    0.376873    0.554033     0.006663
CU2439   CU        0.412193    0.413221    0.518693     0.006663
CU2440   CU        0.451332    0.376894    0.521598     0.006663
CU2441   CU        0.452120    0.416355    0.557758     0.006663
CU2442   CU        0.485801    0.381559    0.557280     0.006663
CU2443   CU        0.486097    0.417266    0.516284     0.006663
CU2444   CU        0.521880    0.382140    0.519825     0.006663
CU2445   CU        0.517722    0.417617    0.557998     0.006663
CU2446   CU        0.553866    0.382920    0.556344     0.006663
CU2447   CU        0.554989    0.414873    0.519048     0.006663
CU2448   CU        0.591795    0.379389    0.524419     0.006663
CU2449   CU        0.589622    0.414525    0.555540     0.006663
CU2450   CU        0.624925    0.378850    0.555303     0.006663
CU2451   CU        0.624333    0.415107    0.522506     0.006663
CU2452   CU        0.657962    0.377532    0.520123     0.006663
CU2453   CU        0.661471    0.417435    0.553043     0.006663
CU2454   CU        0.695793    0.384887    0.559830     0.006663
CU2455   CU        0.695713    0.416105    0.519741     0.006663
CU2456   CU        0.727002    0.382500    0.514921     0.006663
CU2457   CU        0.726972    0.418197    0.554302     0.006663
CU2458   CU        0.765587    0.385064    0.548880     0.006663
CU2459   CU        0.761187    0.418331    0.520556     0.006663
AG2460   AG        0.813172    0.362525    0.537070     0.008887
AG2461   AG        0.811376    0.400676    0.577469     0.008887
AG2462   AG        0.855618    0.365452    0.575434     0.008887
AG2463   AG        0.846425    0.402903    0.531641     0.008887
AG2464   AG        0.000769    0.428773    0.522871     0.008887
AG2465   AG        0.043978    0.460683    0.528847     0.008887
AG2466   AG        0.043563    0.515906    0.540973     0.008887
AG2467   AG        0.089189    0.428401    0.529728     0.008887
AG2468   AG        0.092478    0.484537    0.541571     0.008887
CU2469   CU        0.135635    0.450875    0.545618     0.006663
CU2470   CU        0.135304    0.483115    0.512970     0.006663
CU2471   CU        0.173381    0.450910    0.515084     0.006663
CU2472   CU        0.171000    0.483083    0.547876     0.006663
CU2473   CU        0.204607    0.447028    0.549974     0.006663
CU2474   CU        0.207874    0.486109    0.517513     0.006663
CU2475   CU        0.241104    0.450621    0.520353     0.006663
CU2476   CU        0.237606    0.483446    0.553608     0.006663
CU2477   CU        0.274041    0.451536    0.550933     0.006663
CU2478   CU        0.273657    0.487348    0.517313     0.006663
CU2479   CU        0.309640    0.448840    0.517022     0.006663
CU2480   CU        0.309816    0.484886    0.551188     0.006663
CU2481   CU        0.344541    0.449776    0.552076     0.006663
CU2482   CU        0.344036    0.484507    0.520869     0.006663
CU2483   CU        0.377592    0.446401    0.515591     0.006663
CU2484   CU        0.384019    0.485979    0.558259     0.006663
CU2485   CU        0.412619    0.445957    0.556656     0.006663
CU2486   CU        0.413695    0.486577    0.520750     0.006663
CU2487   CU        0.446944    0.446397    0.521073     0.006663
CU2488   CU        0.451616    0.486441    0.554984     0.006663
CU2489   CU        0.484297    0.453207    0.554448     0.006663
CU2490   CU        0.488956    0.490305    0.523610     0.006663
CU2491   CU        0.522080    0.450889    0.519103     0.006663
CU2492   CU        0.521225    0.486129    0.556168     0.006663
CU2493   CU        0.556126    0.454996    0.555027     0.006663
CU2494   CU        0.554079    0.488102    0.518708     0.006663
CU2495   CU        0.591412    0.450180    0.518706     0.006663
CU2496   CU        0.590935    0.486965    0.556607     0.006663
CU2497   CU        0.625350    0.449237    0.559227     0.006663
CU2498   CU        0.621509    0.489588    0.522160     0.006663
CU2499   CU        0.659077    0.452324    0.519377     0.006663
CU2500   CU        0.659727    0.485235    0.555359     0.006663
CU2501   CU        0.694680    0.452457    0.554928     0.006663
CU2502   CU        0.692273    0.488147    0.518264     0.006663
CU2503   CU        0.725907    0.450709    0.517450     0.006663
CU2504   CU        0.724083    0.487580    0.556110     0.006663
CU2505   CU        0.757592    0.453702    0.553717     0.006663
CU2506   CU        0.758800    0.485408    0.522178     0.006663
AG2507   AG        0.806791    0.438056    0.540487     0.008887
AG2508   AG        0.803299    0.495325    0.549880     0.008887
AG2509   AG        0.855129    0.428387    0.577623     0.008887
AG2510   AG        0.851471    0.469779    0.543484     0.008887
AG2511   AG        0.902118    0.480475    0.562618     0.008887
AG2512   AG        0.030607    0.546273    0.588394     0.008887
AG2513   AG        0.042228    0.564101    0.536223     0.008887
AG2514   AG        0.092610    0.540487    0.539536     0.008887
AG2515   AG        0.080198    0.575703    0.577359     0.008887
CU2516   CU        0.135713    0.513348    0.549693     0.006663
CU2517   CU        0.133396    0.549972    0.512290     0.006663
CU2518   CU        0.170070    0.518351    0.510361     0.006663
CU2519   CU        0.167090    0.550708    0.545005     0.006663
CU2520   CU        0.205690    0.518364    0.551282     0.006663
CU2521   CU        0.203795    0.553402    0.517561     0.006663
CU2522   CU        0.242079    0.522540    0.518902     0.006663
CU2523   CU        0.237843    0.555176    0.552759     0.006663
CU2524   CU        0.273343    0.520185    0.561281     0.006663
CU2525   CU        0.276595    0.553745    0.517628     0.006663
CU2526   CU        0.308330    0.521701    0.518742     0.006663
CU2527   CU        0.306005    0.551725    0.555928     0.006663
CU2528   CU        0.345426    0.519135    0.555415     0.006663
CU2529   CU        0.344680    0.553454    0.522597     0.006663
CU2530   CU        0.377469    0.520359    0.520656     0.006663
CU2531   CU        0.379862    0.555343    0.554977     0.006663
CU2532   CU        0.412424    0.521032    0.555791     0.006663
CU2533   CU        0.414623    0.551015    0.521717     0.006663
CU2534   CU        0.451381    0.522670    0.523863     0.006663
CU2535   CU        0.450855    0.556033    0.558098     0.006663
CU2536   CU        0.488315    0.520861    0.559415     0.006663
CU2537   CU        0.483746    0.557774    0.522075     0.006663
CU2538   CU        0.520530    0.526228    0.523956     0.006663
CU2539   CU        0.519408    0.558757    0.557899     0.006663
CU2540   CU        0.557508    0.523880    0.556279     0.006663
CU2541   CU        0.557837    0.556231    0.524183     0.006663
CU2542   CU        0.591436    0.522099    0.521678     0.006663
CU2543   CU        0.591366    0.558388    0.560922     0.006663
CU2544   CU        0.625173    0.524045    0.558140     0.006663
CU2545   CU        0.621775    0.558077    0.522975     0.006663
CU2546   CU        0.658564    0.521788    0.523843     0.006663
CU2547   CU        0.658983    0.558931    0.557041     0.006663
CU2548   CU        0.694591    0.525206    0.555967     0.006663
CU2549   CU        0.692894    0.556964    0.520351     0.006663
CU2550   CU        0.725146    0.523893    0.520434     0.006663
CU2551   CU        0.728336    0.557785    0.557096     0.006663
CU2552   CU        0.760636    0.522557    0.551575     0.006663
CU2553   CU        0.762335    0.554944    0.520354     0.006663
AG2554   AG        0.811258    0.547621    0.550201     0.008887
AG2555   AG        0.808538    0.586089    0.588181     0.008887
AG2556   AG        0.856860    0.522099    0.558467     0.008887
AG2557   AG        0.868330    0.569673    0.538347     0.008887
AG2558   AG        0.041445    0.617730    0.514131     0.008887
AG2559   AG        0.085446    0.585165    0.513296     0.008887
AG2560   AG        0.078344    0.624479    0.553668     0.008887
AG2561   AG        0.126658    0.586398    0.546833     0.008887
AG2562   AG        0.122496    0.627434    0.507414     0.008887
CU2563   CU        0.166455    0.589097    0.515561     0.006663
AG2564   AG        0.162711    0.628823    0.548007     0.008887
CU2565   CU        0.201852    0.588787    0.551430     0.006663
CU2566   CU        0.203276    0.625738    0.518425     0.006663
CU2567   CU        0.239134    0.586685    0.519078     0.006663
CU2568   CU        0.235104    0.626196    0.554345     0.006663
CU2569   CU        0.269584    0.591265    0.557277     0.006663
CU2570   CU        0.273693    0.620189    0.524183     0.006663
CU2571   CU        0.307836    0.586937    0.524164     0.006663
CU2572   CU        0.308313    0.625528    0.556865     0.006663
CU2573   CU        0.341769    0.588093    0.554883     0.006663
CU2574   CU        0.343409    0.623387    0.521101     0.006663
CU2575   CU        0.377994    0.590922    0.521505     0.006663
CU2576   CU        0.376961    0.627548    0.557221     0.006663
CU2577   CU        0.412539    0.589271    0.555691     0.006663
CU2578   CU        0.413584    0.625441    0.523385     0.006663
CU2579   CU        0.447895    0.592396    0.522950     0.006663
CU2580   CU        0.448294    0.626445    0.554757     0.006663
CU2581   CU        0.483788    0.594370    0.558406     0.006663
CU2582   CU        0.482333    0.626405    0.521475     0.006663
CU2583   CU        0.519269    0.593210    0.523029     0.006663
CU2584   CU        0.520704    0.629265    0.556827     0.006663
CU2585   CU        0.556733    0.594553    0.557961     0.006663
CU2586   CU        0.556145    0.626719    0.521280     0.006663
CU2587   CU        0.589601    0.591709    0.522936     0.006663
CU2588   CU        0.587522    0.630630    0.559146     0.006663
CU2589   CU        0.624652    0.593751    0.560773     0.006663
CU2590   CU        0.621667    0.629298    0.523248     0.006663
CU2591   CU        0.657051    0.593324    0.522134     0.006663
CU2592   CU        0.659435    0.627716    0.559103     0.006663
CU2593   CU        0.692510    0.591882    0.558303     0.006663
CU2594   CU        0.693543    0.629639    0.522268     0.006663
CU2595   CU        0.728934    0.591506    0.521964     0.006663
AG2596   AG        0.730040    0.632110    0.556350     0.008887
AG2597   AG        0.765271    0.590718    0.552406     0.008887
AG2598   AG        0.781044    0.634099    0.527103     0.008887
AG2599   AG        0.818261    0.590830    0.529830     0.008887
AG2600   AG        0.828220    0.634716    0.568252     0.008887
AG2601   AG        0.857853    0.562869    0.591403     0.008887
AG2602   AG        0.072021    0.662499    0.514493     0.008887
AG2603   AG        0.119101    0.662936    0.547025     0.008887
AG2604   AG        0.114521    0.707565    0.510373     0.008887
AG2605   AG        0.160345    0.665751    0.509825     0.008887
AG2606   AG        0.156101    0.701933    0.550872     0.008887
CU2607   CU        0.198945    0.666318    0.552204     0.006663
AG2608   AG        0.198049    0.698132    0.513890     0.008887
CU2609   CU        0.238140    0.661909    0.521151     0.006663
CU2610   CU        0.233152    0.702686    0.550080     0.006663
CU2611   CU        0.269723    0.659208    0.558050     0.006663
CU2612   CU        0.273766    0.693318    0.518573     0.006663
CU2613   CU        0.307240    0.659786    0.519353     0.006663
CU2614   CU        0.307215    0.693143    0.555908     0.006663
CU2615   CU        0.340123    0.659731    0.556033     0.006663
CU2616   CU        0.339309    0.691256    0.518288     0.006663
CU2617   CU        0.380206    0.657891    0.520380     0.006663
CU2618   CU        0.378658    0.689801    0.557211     0.006663
CU2619   CU        0.411339    0.659699    0.557676     0.006663
CU2620   CU        0.409768    0.692425    0.519988     0.006663
CU2621   CU        0.447268    0.659502    0.520079     0.006663
CU2622   CU        0.446146    0.692909    0.555512     0.006663
CU2623   CU        0.483464    0.658430    0.556245     0.006663
CU2624   CU        0.483710    0.692055    0.520099     0.006663
CU2625   CU        0.523108    0.663409    0.523369     0.006663
CU2626   CU        0.517512    0.697814    0.555339     0.006663
CU2627   CU        0.555260    0.665186    0.558205     0.006663
CU2628   CU        0.552960    0.697630    0.521960     0.006663
CU2629   CU        0.586656    0.662244    0.520101     0.006663
CU2630   CU        0.583119    0.702684    0.557354     0.006663
CU2631   CU        0.621564    0.664094    0.556906     0.006663
CU2632   CU        0.622903    0.695532    0.521320     0.006663
CU2633   CU        0.658650    0.662388    0.518362     0.006663
CU2634   CU        0.660343    0.705070    0.551460     0.006663
CU2635   CU        0.696979    0.668644    0.553160     0.006663
AG2636   AG        0.697675    0.703180    0.514681     0.008887
AG2637   AG        0.739270    0.666921    0.518413     0.008887
AG2638   AG        0.740411    0.708144    0.554980     0.008887
AG2639   AG        0.787569    0.671938    0.562616     0.008887
AG2640   AG        0.782453    0.707194    0.517291     0.008887
AG2641   AG        0.825227    0.665922    0.518957     0.008887
AG2642   AG        0.152688    0.746793    0.516874     0.008887
AG2643   AG        0.197224    0.741529    0.546819     0.008887
AG2644   AG        0.195365    0.788387    0.515030     0.008887
AG2645   AG        0.238092    0.737786    0.513315     0.008887
AG2646   AG        0.237630    0.780550    0.551266     0.008887
AG2647   AG        0.272925    0.737993    0.557196     0.008887
AG2648   AG        0.281271    0.774558    0.516048     0.008887
CU2649   CU        0.308777    0.729009    0.525045     0.006663
AG2650   AG        0.324794    0.770262    0.550397     0.008887
CU2651   CU        0.343138    0.723870    0.555251     0.006663
CU2652   CU        0.326178    0.766434    0.497102     0.006663
CU2653   CU        0.372596    0.723125    0.517477     0.006663
CU2654   CU        0.370050    0.765446    0.547870     0.006663
CU2655   CU        0.409126    0.728775    0.550483     0.006663
CU2656   CU        0.404424    0.759003    0.517861     0.006663
CU2657   CU        0.443811    0.725717    0.517771     0.006663
CU2658   CU        0.440672    0.761935    0.547953     0.006663
CU2659   CU        0.480944    0.728009    0.556160     0.006663
CU2660   CU        0.476779    0.763554    0.517987     0.006663
CU2661   CU        0.513571    0.730476    0.518248     0.006663
CU2662   CU        0.512375    0.778033    0.547468     0.006663
CU2663   CU        0.543661    0.739177    0.552274     0.006663
CU2664   CU        0.544095    0.769901    0.513256     0.006663
CU2665   CU        0.582904    0.733899    0.520259     0.006663
AG2666   AG        0.576030    0.780877    0.549631     0.008887
AG2667   AG        0.621085    0.738944    0.554705     0.008887
AG2668   AG        0.617007    0.776686    0.516616     0.008887
AG2669   AG        0.658436    0.741308    0.516024     0.008887
AG2670   AG        0.661121    0.784086    0.547943     0.008887
AG2671   AG        0.700080    0.746491    0.550029     0.008887
AG2672   AG        0.710077    0.794416    0.519474     0.008887
AG2673   AG        0.744811    0.748858    0.518199     0.008887
AG2674   AG        0.233396    0.825483    0.518663     0.008887
AG2675   AG        0.278942    0.827598    0.557768     0.008887
AG2676   AG        0.314858    0.817260    0.523092     0.008887
AG2677   AG        0.316873    0.864675    0.545976     0.008887
AG2678   AG        0.369291    0.846722    0.549327     0.008887
AG2679   AG        0.356808    0.895394    0.518592     0.008887
AG2680   AG        0.360461    0.801230    0.512649     0.008887
AG2681   AG        0.397162    0.897674    0.558189     0.008887
AG2682   AG        0.399875    0.805512    0.547425     0.008887
AG2683   AG        0.425096    0.852682    0.542605     0.008887
AG2684   AG        0.456707    0.810743    0.541147     0.008887
AG2685   AG        0.463631    0.866855    0.579932     0.008887
AG2686   AG        0.495318    0.823295    0.583282     0.008887
AG2687   AG        0.495534    0.858877    0.537727     0.008887
AG2688   AG        0.535224    0.821920    0.546077     0.008887
AG2689   AG        0.533607    0.863788    0.577960     0.008887
AG2690   AG        0.576531    0.824716    0.582502     0.008887
AG2691   AG        0.575837    0.857832    0.539622     0.008887
AG2692   AG        0.617926    0.821048    0.546214     0.008887
AG2693   AG        0.615981    0.868274    0.580989     0.008887
AG2694   AG        0.656195    0.826132    0.582635     0.008887
AG2695   AG        0.667625    0.835662    0.523971     0.008887
AG2696   AG        0.451827    0.899314    0.537755     0.008887
AG2697   AG        0.356415    0.040705    0.589569     0.008887
AG2698   AG        0.427047    0.037165    0.593895     0.008887
AG2699   AG        0.461948    0.031934    0.634087     0.008887
AG2700   AG        0.517892    0.038220    0.627551     0.008887
AG2701   AG        0.587102    0.040483    0.621878     0.008887
AG2702   AG        0.193549    0.108619    0.582191     0.008887
AG2703   AG        0.238130    0.113820    0.619352     0.008887
AG2704   AG        0.277217    0.121210    0.582255     0.008887
AG2705   AG        0.314565    0.079947    0.587080     0.008887
AG2706   AG        0.312136    0.115101    0.626436     0.008887
AG2707   AG        0.353886    0.081234    0.622726     0.008887
AG2708   AG        0.353159    0.122299    0.584194     0.008887
AG2709   AG        0.394066    0.083868    0.584368     0.008887
AG2710   AG        0.389931    0.124518    0.624198     0.008887
AG2711   AG        0.421957    0.071487    0.635210     0.008887
AG2712   AG        0.443956    0.125822    0.616449     0.008887
AG2713   AG        0.478474    0.078852    0.619620     0.008887
AG2714   AG        0.473881    0.122171    0.660942     0.008887
AG2715   AG        0.510788    0.081070    0.663786     0.008887
AG2716   AG        0.480201    0.129035    0.586066     0.008887
AG2717   AG        0.550175    0.082250    0.622259     0.008887
AG2718   AG        0.514413    0.121247    0.626419     0.008887
AG2719   AG        0.593652    0.077358    0.660856     0.008887
AG2720   AG        0.553004    0.121117    0.585971     0.008887
AG2721   AG        0.631402    0.076534    0.615734     0.008887
AG2722   AG        0.594033    0.116422    0.621641     0.008887
AG2723   AG        0.631707    0.117372    0.580389     0.008887
AG2724   AG        0.675157    0.118559    0.621296     0.008887
AG2725   AG        0.716955    0.116464    0.586468     0.008887
AG2726   AG        0.114735    0.191747    0.576313     0.008887
AG2727   AG        0.150349    0.149982    0.578292     0.008887
AG2728   AG        0.154565    0.192453    0.614998     0.008887
AG2729   AG        0.195251    0.153483    0.618921     0.008887
AG2730   AG        0.199727    0.196390    0.581509     0.008887
AG2731   AG        0.235427    0.155677    0.585099     0.008887
AG2732   AG        0.237915    0.194375    0.621607     0.008887
AG2733   AG        0.272344    0.158210    0.623869     0.008887
CU2734   CU        0.272818    0.194925    0.585743     0.006663
AG2735   AG        0.311527    0.162679    0.583782     0.008887
CU2736   CU        0.305809    0.199921    0.623971     0.006663
AG2737   AG        0.348803    0.159353    0.625766     0.008887
CU2738   CU        0.341891    0.204988    0.589063     0.006663
CU2739   CU        0.378748    0.170013    0.585082     0.006663
CU2740   CU        0.376805    0.204636    0.624148     0.006663
CU2741   CU        0.410437    0.169626    0.619694     0.006663
CU2742   CU        0.411935    0.204967    0.587757     0.006663
CU2743   CU        0.443410    0.166338    0.588055     0.006663
CU2744   CU        0.447467    0.203813    0.621205     0.006663
CU2745   CU        0.481140    0.167865    0.621567     0.006663
CU2746   CU        0.484910    0.203658    0.589346     0.006663
CU2747   CU        0.518099    0.166854    0.589463     0.006663
CU2748   CU        0.518902    0.204107    0.628358     0.006663
AG2749   AG        0.552330    0.162853    0.628918     0.008887
CU2750   CU        0.555717    0.201497    0.591755     0.006663
AG2751   AG        0.591842    0.162804    0.591744     0.008887
CU2752   CU        0.591224    0.202385    0.626698     0.006663
AG2753   AG        0.636889    0.159145    0.617346     0.008887
CU2754   CU        0.627962    0.201196    0.592275     0.006663
AG2755   AG        0.673041    0.155911    0.579960     0.008887
AG2756   AG        0.672094    0.197815    0.620274     0.008887
AG2757   AG        0.711624    0.159858    0.623002     0.008887
AG2758   AG        0.710599    0.196242    0.577624     0.008887
AG2759   AG        0.756698    0.155028    0.585621     0.008887
AG2760   AG        0.754986    0.195666    0.627839     0.008887
AG2761   AG        0.796989    0.192321    0.590824     0.008887
AG2762   AG        0.113244    0.231250    0.616071     0.008887
AG2763   AG        0.115983    0.271805    0.577690     0.008887
AG2764   AG        0.154269    0.233801    0.579410     0.008887
AG2765   AG        0.152781    0.270604    0.621664     0.008887
AG2766   AG        0.192912    0.231994    0.620135     0.008887
CU2767   CU        0.199121    0.271372    0.585907     0.006663
CU2768   CU        0.236625    0.234986    0.587305     0.006663
CU2769   CU        0.233985    0.275788    0.623770     0.006663
CU2770   CU        0.270447    0.238501    0.625489     0.006663
CU2771   CU        0.267690    0.272413    0.588889     0.006663
CU2772   CU        0.300269    0.237231    0.587832     0.006663
CU2773   CU        0.305257    0.270938    0.621303     0.006663
CU2774   CU        0.340924    0.239013    0.625522     0.006663
CU2775   CU        0.341786    0.271932    0.582322     0.006663
CU2776   CU        0.378489    0.241164    0.585771     0.006663
CU2777   CU        0.374189    0.273277    0.619280     0.006663
CU2778   CU        0.409910    0.239894    0.623264     0.006663
CU2779   CU        0.414941    0.275452    0.585895     0.006663
CU2780   CU        0.449090    0.243708    0.587745     0.006663
CU2781   CU        0.450052    0.274181    0.623416     0.006663
CU2782   CU        0.486473    0.237509    0.628389     0.006663
CU2783   CU        0.487494    0.275198    0.589480     0.006663
CU2784   CU        0.522642    0.238736    0.591730     0.006663
CU2785   CU        0.521228    0.274611    0.623818     0.006663
CU2786   CU        0.552964    0.233657    0.628981     0.006663
CU2787   CU        0.559033    0.276345    0.593350     0.006663
CU2788   CU        0.591853    0.240075    0.594083     0.006663
CU2789   CU        0.590182    0.274116    0.629171     0.006663
CU2790   CU        0.625700    0.237627    0.625617     0.006663
CU2791   CU        0.629921    0.273907    0.594486     0.006663
CU2792   CU        0.660042    0.236875    0.591592     0.006663
CU2793   CU        0.664587    0.277678    0.628616     0.006663
AG2794   AG        0.707878    0.235831    0.616775     0.008887
CU2795   CU        0.700452    0.283415    0.595382     0.006663
AG2796   AG        0.750321    0.235851    0.579226     0.008887
AG2797   AG        0.751000    0.275742    0.619472     0.008887
AG2798   AG        0.790909    0.237185    0.622747     0.008887
AG2799   AG        0.788356    0.271384    0.577686     0.008887
AG2800   AG        0.033903    0.316976    0.611222     0.008887
AG2801   AG        0.070082    0.270618    0.617693     0.008887
AG2802   AG        0.069896    0.313730    0.652145     0.008887
AG2803   AG        0.110590    0.305668    0.617727     0.008887
AG2804   AG        0.118907    0.342628    0.576623     0.008887
AG2805   AG        0.159467    0.307526    0.582851     0.008887
AG2806   AG        0.158711    0.346821    0.620230     0.008887
CU2807   CU        0.199048    0.308818    0.617097     0.006663
CU2808   CU        0.197643    0.341206    0.583000     0.006663
CU2809   CU        0.236007    0.307370    0.585546     0.006663
CU2810   CU        0.234237    0.345676    0.623620     0.006663
CU2811   CU        0.267435    0.310171    0.621669     0.006663
CU2812   CU        0.271683    0.340859    0.585304     0.006663
CU2813   CU        0.305348    0.305573    0.588321     0.006663
CU2814   CU        0.305348    0.343675    0.622181     0.006663
CU2815   CU        0.337766    0.309448    0.621462     0.006663
CU2816   CU        0.338618    0.345132    0.586787     0.006663
CU2817   CU        0.377449    0.308941    0.589496     0.006663
CU2818   CU        0.373887    0.345022    0.621645     0.006663
CU2819   CU        0.413466    0.310154    0.621507     0.006663
CU2820   CU        0.411473    0.342709    0.588766     0.006663
CU2821   CU        0.449804    0.309583    0.590457     0.006663
CU2822   CU        0.448240    0.344116    0.622759     0.006663
CU2823   CU        0.485067    0.307134    0.623823     0.006663
CU2824   CU        0.484695    0.343728    0.589142     0.006663
CU2825   CU        0.523385    0.307905    0.589389     0.006663
CU2826   CU        0.520972    0.346405    0.623184     0.006663
CU2827   CU        0.555439    0.310595    0.625722     0.006663
CU2828   CU        0.554663    0.347721    0.588711     0.006663
CU2829   CU        0.594164    0.309150    0.593048     0.006663
CU2830   CU        0.589526    0.347414    0.622876     0.006663
CU2831   CU        0.628663    0.311411    0.628380     0.006663
CU2832   CU        0.627212    0.345743    0.591369     0.006663
CU2833   CU        0.663633    0.313934    0.593683     0.006663
CU2834   CU        0.659819    0.348272    0.626885     0.006663
CU2835   CU        0.700034    0.321392    0.629687     0.006663
CU2836   CU        0.694280    0.347704    0.589741     0.006663
AG2837   AG        0.736011    0.317299    0.591500     0.008887
AG2838   AG        0.739003    0.358362    0.629823     0.008887
AG2839   AG        0.788479    0.314163    0.619034     0.008887
AG2840   AG        0.777264    0.358023    0.589334     0.008887
AG2841   AG        0.830774    0.278146    0.611291     0.008887
AG2842   AG        0.830933    0.318465    0.655946     0.008887
AG2843   AG        0.863894    0.322733    0.610585     0.008887
AG2844   AG        0.032947    0.415143    0.570996     0.008887
AG2845   AG        0.075923    0.350352    0.607907     0.008887
AG2846   AG        0.069496    0.404941    0.618863     0.008887
AG2847   AG        0.117607    0.382573    0.614343     0.008887
AG2848   AG        0.127614    0.416227    0.578454     0.008887
CU2849   CU        0.162113    0.378974    0.582682     0.006663
CU2850   CU        0.161253    0.410584    0.616729     0.006663
CU2851   CU        0.202190    0.378454    0.615247     0.006663
CU2852   CU        0.201107    0.410495    0.581510     0.006663
CU2853   CU        0.238787    0.374438    0.581942     0.006663
CU2854   CU        0.238977    0.415206    0.621757     0.006663
CU2855   CU        0.270848    0.375747    0.621630     0.006663
CU2856   CU        0.273756    0.412755    0.589110     0.006663
CU2857   CU        0.306629    0.377132    0.591750     0.006663
CU2858   CU        0.305200    0.414456    0.622691     0.006663
CU2859   CU        0.341448    0.379460    0.622331     0.006663
CU2860   CU        0.342281    0.414221    0.587360     0.006663
CU2861   CU        0.375746    0.378534    0.587356     0.006663
CU2862   CU        0.377721    0.413338    0.620029     0.006663
CU2863   CU        0.411788    0.377818    0.618993     0.006663
CU2864   CU        0.413262    0.411773    0.587048     0.006663
CU2865   CU        0.448538    0.378103    0.589726     0.006663
CU2866   CU        0.449288    0.414810    0.621514     0.006663
CU2867   CU        0.484595    0.378260    0.621939     0.006663
CU2868   CU        0.483873    0.417947    0.589506     0.006663
CU2869   CU        0.522028    0.380019    0.590759     0.006663
CU2870   CU        0.518337    0.413945    0.623211     0.006663
CU2871   CU        0.551186    0.384153    0.626389     0.006663
CU2872   CU        0.552607    0.414185    0.593158     0.006663
CU2873   CU        0.589413    0.379074    0.590204     0.006663
CU2874   CU        0.587024    0.415071    0.627701     0.006663
CU2875   CU        0.623691    0.379285    0.626534     0.006663
CU2876   CU        0.623012    0.413962    0.590828     0.006663
CU2877   CU        0.659505    0.382450    0.591802     0.006663
CU2878   CU        0.654402    0.418439    0.627838     0.006663
CU2879   CU        0.695411    0.385762    0.623976     0.006663
CU2880   CU        0.693981    0.419496    0.590043     0.006663
CU2881   CU        0.731367    0.382102    0.589061     0.006663
CU2882   CU        0.729786    0.417502    0.625195     0.006663
AG2883   AG        0.777566    0.395089    0.631258     0.008887
AG2884   AG        0.763655    0.418782    0.586180     0.008887
AG2885   AG        0.820943    0.360264    0.619264     0.008887
AG2886   AG        0.820725    0.423588    0.624895     0.008887
AG2887   AG        0.865247    0.393340    0.620773     0.008887
AG2888   AG        0.029214    0.445590    0.616582     0.008887
AG2889   AG        0.042053    0.482823    0.579000     0.008887
AG2890   AG        0.081865    0.446343    0.579102     0.008887
AG2891   AG        0.072150    0.482828    0.624983     0.008887
AG2892   AG        0.110453    0.438969    0.624014     0.008887
AG2893   AG        0.125860    0.479234    0.587486     0.008887
CU2894   CU        0.166839    0.446306    0.582763     0.006663
CU2895   CU        0.165061    0.481072    0.618319     0.006663
CU2896   CU        0.201231    0.448242    0.615973     0.006663
CU2897   CU        0.203191    0.483904    0.585449     0.006663
CU2898   CU        0.238256    0.447686    0.586193     0.006663
CU2899   CU        0.235029    0.482261    0.618466     0.006663
CU2900   CU        0.273071    0.450111    0.621803     0.006663
CU2901   CU        0.271829    0.483764    0.587765     0.006663
CU2902   CU        0.306216    0.447757    0.588544     0.006663
CU2903   CU        0.307809    0.481828    0.621823     0.006663
CU2904   CU        0.341150    0.444589    0.624867     0.006663
CU2905   CU        0.341466    0.482688    0.587724     0.006663
CU2906   CU        0.376959    0.450786    0.587468     0.006663
CU2907   CU        0.375691    0.480553    0.623858     0.006663
CU2908   CU        0.414504    0.453136    0.624047     0.006663
CU2909   CU        0.412514    0.487633    0.593756     0.006663
CU2910   CU        0.449221    0.451028    0.589210     0.006663
CU2911   CU        0.445356    0.485969    0.626396     0.006663
CU2912   CU        0.484727    0.450286    0.627773     0.006663
CU2913   CU        0.484498    0.487283    0.592548     0.006663
CU2914   CU        0.520828    0.453356    0.591268     0.006663
CU2915   CU        0.518474    0.488235    0.629859     0.006663
CU2916   CU        0.553938    0.450353    0.626754     0.006663
CU2917   CU        0.555674    0.487918    0.593835     0.006663
CU2918   CU        0.588594    0.450321    0.591081     0.006663
CU2919   CU        0.593983    0.487345    0.627716     0.006663
CU2920   CU        0.627949    0.454364    0.627340     0.006663
CU2921   CU        0.626318    0.486212    0.593961     0.006663
CU2922   CU        0.658581    0.448998    0.593020     0.006663
CU2923   CU        0.658959    0.489116    0.628892     0.006663
CU2924   CU        0.696823    0.449708    0.627771     0.006663
CU2925   CU        0.690736    0.488208    0.593164     0.006663
CU2926   CU        0.727339    0.456969    0.590436     0.006663
CU2927   CU        0.733374    0.486892    0.627730     0.006663
AG2928   AG        0.774281    0.452167    0.625824     0.008887
AG2929   AG        0.765177    0.490583    0.587855     0.008887
AG2930   AG        0.809134    0.454630    0.585248     0.008887
AG2931   AG        0.823634    0.478839    0.635530     0.008887
AG2932   AG        0.869166    0.446441    0.640074     0.008887
AG2933   AG        0.860209    0.478332    0.595468     0.008887
AG2934   AG        0.032332    0.603990    0.573464     0.008887
AG2935   AG        0.076909    0.521758    0.585598     0.008887
AG2936   AG        0.068975    0.557820    0.624962     0.008887
AG2937   AG        0.114472    0.515566    0.624694     0.008887
AG2938   AG        0.126532    0.546496    0.582420     0.008887
CU2939   CU        0.170887    0.517821    0.580920     0.006663
AG2940   AG        0.160846    0.547924    0.621728     0.008887
CU2941   CU        0.200014    0.517901    0.618021     0.006663
CU2942   CU        0.201420    0.551725    0.585336     0.006663
CU2943   CU        0.236101    0.519261    0.588763     0.006663
CU2944   CU        0.231518    0.554480    0.624931     0.006663
CU2945   CU        0.269990    0.520246    0.623908     0.006663
CU2946   CU        0.269692    0.555326    0.589408     0.006663
CU2947   CU        0.308053    0.520643    0.593208     0.006663
CU2948   CU        0.303988    0.556456    0.624388     0.006663
CU2949   CU        0.343313    0.517121    0.623851     0.006663
CU2950   CU        0.342955    0.552603    0.589887     0.006663
CU2951   CU        0.380645    0.521334    0.591034     0.006663
CU2952   CU        0.379818    0.554509    0.625526     0.006663
CU2953   CU        0.415695    0.521496    0.626803     0.006663
CU2954   CU        0.412600    0.557766    0.591784     0.006663
CU2955   CU        0.448513    0.519648    0.591055     0.006663
CU2956   CU        0.446076    0.555950    0.625205     0.006663
CU2957   CU        0.483765    0.520402    0.629781     0.006663
CU2958   CU        0.483343    0.556610    0.592226     0.006663
CU2959   CU        0.519871    0.521220    0.592987     0.006663
CU2960   CU        0.517634    0.556405    0.628354     0.006663
CU2961   CU        0.553428    0.521583    0.625439     0.006663
CU2962   CU        0.554689    0.555761    0.590218     0.006663
CU2963   CU        0.590171    0.521241    0.592236     0.006663
CU2964   CU        0.588166    0.555835    0.626911     0.006663
CU2965   CU        0.623771    0.524306    0.631033     0.006663
CU2966   CU        0.627432    0.553353    0.595086     0.006663
CU2967   CU        0.658925    0.523316    0.593946     0.006663
CU2968   CU        0.661683    0.559575    0.632367     0.006663
CU2969   CU        0.697867    0.519750    0.630550     0.006663
CU2970   CU        0.692352    0.555935    0.596656     0.006663
CU2971   CU        0.726591    0.522589    0.590095     0.006663
AG2972   AG        0.731570    0.555703    0.632005     0.008887
AG2973   AG        0.781412    0.513947    0.633270     0.008887
AG2974   AG        0.768504    0.548583    0.591884     0.008887
AG2975   AG        0.818337    0.514474    0.596979     0.008887
AG2976   AG        0.821915    0.556921    0.630915     0.008887
AG2977   AG        0.865569    0.517665    0.629905     0.008887
AG2978   AG        0.070228    0.622345    0.612401     0.008887
AG2979   AG        0.116084    0.583254    0.620839     0.008887
AG2980   AG        0.120029    0.625822    0.586455     0.008887
AG2981   AG        0.163122    0.586321    0.585887     0.008887
AG2982   AG        0.155145    0.625578    0.623880     0.008887
CU2983   CU        0.198915    0.586740    0.624623     0.006663
CU2984   CU        0.199514    0.626528    0.586071     0.006663
CU2985   CU        0.232238    0.589597    0.590179     0.006663
CU2986   CU        0.230649    0.627878    0.624157     0.006663
CU2987   CU        0.265261    0.587550    0.623510     0.006663
CU2988   CU        0.269411    0.624682    0.592860     0.006663
CU2989   CU        0.305139    0.585663    0.591796     0.006663
CU2990   CU        0.303790    0.623019    0.629529     0.006663
CU2991   CU        0.340502    0.589369    0.625247     0.006663
CU2992   CU        0.341114    0.622284    0.592254     0.006663
CU2993   CU        0.375497    0.590664    0.587218     0.006663
CU2994   CU        0.376826    0.626006    0.624810     0.006663
CU2995   CU        0.412765    0.591615    0.626927     0.006663
CU2996   CU        0.410602    0.624146    0.590751     0.006663
CU2997   CU        0.446603    0.594275    0.590229     0.006663
CU2998   CU        0.448785    0.624602    0.626506     0.006663
CU2999   CU        0.486076    0.593011    0.626900     0.006663
CU3000   CU        0.483237    0.629467    0.593026     0.006663
CU3001   CU        0.519576    0.594251    0.591658     0.006663
CU3002   CU        0.521004    0.628988    0.626737     0.006663
CU3003   CU        0.551358    0.590634    0.629805     0.006663
CU3004   CU        0.554721    0.630317    0.593723     0.006663
CU3005   CU        0.590441    0.592740    0.594419     0.006663
CU3006   CU        0.588137    0.627429    0.629233     0.006663
CU3007   CU        0.626141    0.593698    0.630847     0.006663
CU3008   CU        0.620372    0.629308    0.596655     0.006663
CU3009   CU        0.659015    0.591710    0.596307     0.006663
CU3010   CU        0.658041    0.630463    0.628857     0.006663
CU3011   CU        0.693182    0.601029    0.630185     0.006663
CU3012   CU        0.693084    0.635796    0.591581     0.006663
AG3013   AG        0.730584    0.592076    0.593822     0.008887
AG3014   AG        0.737261    0.631234    0.630353     0.008887
AG3015   AG        0.773037    0.588385    0.629840     0.008887
AG3016   AG        0.777641    0.630875    0.588895     0.008887
AG3017   AG        0.820008    0.623804    0.623999     0.008887
AG3018   AG        0.114434    0.664338    0.626952     0.008887
AG3019   AG        0.110973    0.708265    0.583021     0.008887
AG3020   AG        0.156054    0.663917    0.586291     0.008887
AG3021   AG        0.151417    0.705260    0.627940     0.008887
AG3022   AG        0.192980    0.662735    0.624428     0.008887
AG3023   AG        0.194444    0.703202    0.587607     0.008887
CU3024   CU        0.234524    0.662678    0.589265     0.006663
AG3025   AG        0.235729    0.698079    0.627413     0.008887
CU3026   CU        0.270671    0.656759    0.625221     0.006663
CU3027   CU        0.271725    0.694726    0.590232     0.006663
CU3028   CU        0.306011    0.659695    0.589775     0.006663
CU3029   CU        0.306201    0.695470    0.623193     0.006663
CU3030   CU        0.341837    0.657057    0.625469     0.006663
CU3031   CU        0.342708    0.695567    0.592769     0.006663
CU3032   CU        0.376426    0.659868    0.593143     0.006663
CU3033   CU        0.377977    0.691348    0.628019     0.006663
CU3034   CU        0.414119    0.656995    0.625234     0.006663
CU3035   CU        0.412462    0.693224    0.590254     0.006663
CU3036   CU        0.447424    0.658604    0.590547     0.006663
CU3037   CU        0.443738    0.696797    0.624908     0.006663
CU3038   CU        0.481255    0.660929    0.627991     0.006663
CU3039   CU        0.478059    0.696136    0.593670     0.006663
CU3040   CU        0.520345    0.669174    0.592591     0.006663
CU3041   CU        0.513295    0.703542    0.630052     0.006663
CU3042   CU        0.554899    0.667579    0.630037     0.006663
CU3043   CU        0.547326    0.708317    0.592250     0.006663
CU3044   CU        0.587835    0.667217    0.594975     0.006663
CU3045   CU        0.586561    0.707505    0.626779     0.006663
CU3046   CU        0.625973    0.667080    0.627725     0.006663
CU3047   CU        0.620221    0.704377    0.590997     0.006663
CU3048   CU        0.660119    0.670155    0.586444     0.006663
AG3049   AG        0.659263    0.706717    0.626264     0.008887
AG3050   AG        0.702141    0.673552    0.626495     0.008887
AG3051   AG        0.698766    0.708932    0.586645     0.008887
AG3052   AG        0.743239    0.670335    0.595676     0.008887
AG3053   AG        0.742996    0.712725    0.629457     0.008887
AG3054   AG        0.786693    0.669347    0.626180     0.008887
AG3055   AG        0.782223    0.712986    0.594559     0.008887
AG3056   AG        0.154734    0.745003    0.585861     0.008887
AG3057   AG        0.191626    0.742281    0.625894     0.008887
AG3058   AG        0.196586    0.785678    0.591590     0.008887
AG3059   AG        0.233135    0.740530    0.590694     0.008887
AG3060   AG        0.240566    0.786309    0.626711     0.008887
AG3061   AG        0.272260    0.742171    0.629518     0.008887
AG3062   AG        0.278870    0.782327    0.588702     0.008887
AG3063   AG        0.309184    0.736055    0.593353     0.008887
AG3064   AG        0.314257    0.777742    0.627405     0.008887
AG3065   AG        0.351860    0.736181    0.629369     0.008887
AG3066   AG        0.355224    0.772766    0.593503     0.008887
CU3067   CU        0.377222    0.725637    0.589528     0.006663
AG3068   AG        0.388521    0.782135    0.635608     0.008887
CU3069   CU        0.408398    0.730222    0.625809     0.006663
AG3070   AG        0.404085    0.767114    0.582740     0.008887
CU3071   CU        0.445813    0.731438    0.587424     0.006663
AG3072   AG        0.442324    0.774002    0.621800     0.008887
CU3073   CU        0.475332    0.733281    0.625371     0.006663
AG3074   AG        0.477556    0.771530    0.580204     0.008887
CU3075   CU        0.510400    0.734733    0.591765     0.006663
AG3076   AG        0.501070    0.781522    0.625532     0.008887
AG3077   AG        0.547575    0.740962    0.628251     0.008887
AG3078   AG        0.538058    0.777221    0.589722     0.008887
AG3079   AG        0.580757    0.746187    0.587521     0.008887
AG3080   AG        0.577877    0.789147    0.625581     0.008887
AG3081   AG        0.617377    0.746676    0.625950     0.008887
AG3082   AG        0.618581    0.787814    0.588861     0.008887
AG3083   AG        0.658845    0.749256    0.590396     0.008887
AG3084   AG        0.656304    0.788729    0.625851     0.008887
AG3085   AG        0.700079    0.751261    0.627296     0.008887
AG3086   AG        0.702150    0.791630    0.584295     0.008887
AG3087   AG        0.742793    0.755652    0.594907     0.008887
AG3088   AG        0.325142    0.816011    0.579298     0.008887
AG3089   AG        0.347544    0.822811    0.634943     0.008887
AG3090   AG        0.348945    0.867178    0.594952     0.008887
AG3091   AG        0.386989    0.817746    0.594955     0.008887
AG3092   AG        0.421955    0.826592    0.637758     0.008887
AG3093   AG        0.411869    0.864830    0.601962     0.008887
AG3094   AG        0.438284    0.813462    0.586310     0.008887
AG3095   AG        0.449533    0.871164    0.643365     0.008887
AG3096   AG        0.475186    0.824915    0.627264     0.008887
AG3097   AG        0.503812    0.870680    0.625666     0.008887
AG3098   AG        0.533387    0.824711    0.620251     0.008887
AG3099   AG        0.568828    0.829514    0.661844     0.008887
AG3100   AG        0.571593    0.866917    0.619667     0.008887
AG3101   AG        0.614664    0.830295    0.625406     0.008887
AG3102   AG        0.273311    0.115515    0.664672     0.008887
AG3103   AG        0.311860    0.115551    0.704334     0.008887
AG3104   AG        0.350998    0.119656    0.665883     0.008887
AG3105   AG        0.379926    0.072496    0.670606     0.008887
AG3106   AG        0.378281    0.114565    0.713914     0.008887
AG3107   AG        0.418338    0.117134    0.670395     0.008887
AG3108   AG        0.456028    0.071383    0.676137     0.008887
AG3109   AG        0.457876    0.111472    0.710040     0.008887
AG3110   AG        0.514088    0.124226    0.698168     0.008887
AG3111   AG        0.550245    0.080503    0.702091     0.008887
AG3112   AG        0.551609    0.119400    0.744377     0.008887
AG3113   AG        0.555375    0.119102    0.661918     0.008887
AG3114   AG        0.594274    0.116391    0.701679     0.008887
AG3115   AG        0.633897    0.111740    0.658384     0.008887
AG3116   AG        0.194285    0.193928    0.657826     0.008887
AG3117   AG        0.232462    0.155145    0.662366     0.008887
AG3118   AG        0.229426    0.193439    0.701671     0.008887
AG3119   AG        0.270305    0.154028    0.701140     0.008887
AG3120   AG        0.271276    0.195826    0.665193     0.008887
AG3121   AG        0.310253    0.157083    0.662488     0.008887
AG3122   AG        0.310426    0.197982    0.698909     0.008887
AG3123   AG        0.349931    0.161091    0.702891     0.008887
CU3124   CU        0.340450    0.201710    0.657818     0.006663
AG3125   AG        0.385899    0.161737    0.664190     0.008887
AG3126   AG        0.384521    0.204341    0.696047     0.008887
AG3127   AG        0.416387    0.155877    0.708165     0.008887
CU3128   CU        0.413555    0.202458    0.653953     0.006663
AG3129   AG        0.443010    0.164834    0.659843     0.008887
AG3130   AG        0.442441    0.205522    0.695376     0.008887
AG3131   AG        0.475795    0.161772    0.702411     0.008887
CU3132   CU        0.482274    0.204228    0.660895     0.006663
AG3133   AG        0.511104    0.162804    0.660841     0.008887
AG3134   AG        0.516136    0.201533    0.696153     0.008887
AG3135   AG        0.553372    0.157892    0.699636     0.008887
CU3136   CU        0.553195    0.197152    0.662056     0.006663
AG3137   AG        0.595804    0.158937    0.656745     0.008887
AG3138   AG        0.592380    0.199255    0.696503     0.008887
AG3139   AG        0.634283    0.153018    0.698064     0.008887
AG3140   AG        0.633500    0.196820    0.658427     0.008887
AG3141   AG        0.672447    0.158781    0.660296     0.008887
AG3142   AG        0.671574    0.199199    0.699038     0.008887
AG3143   AG        0.711498    0.201158    0.662053     0.008887
AG3144   AG        0.109883    0.267331    0.656974     0.008887
AG3145   AG        0.153350    0.231263    0.657590     0.008887
AG3146   AG        0.151143    0.271139    0.695046     0.008887
AG3147   AG        0.189497    0.231087    0.698951     0.008887
AG3148   AG        0.192897    0.272334    0.657057     0.008887
AG3149   AG        0.231027    0.235904    0.659797     0.008887
AG3150   AG        0.228395    0.275655    0.694779     0.008887
AG3151   AG        0.267845    0.235310    0.699591     0.008887
CU3152   CU        0.268696    0.277623    0.658724     0.006663
CU3153   CU        0.306087    0.236285    0.660785     0.006663
CU3154   CU        0.302056    0.273643    0.692535     0.006663
CU3155   CU        0.344912    0.239632    0.693724     0.006663
CU3156   CU        0.337908    0.274308    0.658037     0.006663
CU3157   CU        0.378285    0.239713    0.657053     0.006663
CU3158   CU        0.375567    0.279847    0.688701     0.006663
CU3159   CU        0.410547    0.245009    0.694831     0.006663
CU3160   CU        0.410901    0.275574    0.654632     0.006663
CU3161   CU        0.447436    0.238764    0.656750     0.006663
CU3162   CU        0.447517    0.275882    0.690718     0.006663
CU3163   CU        0.482550    0.242541    0.692105     0.006663
CU3164   CU        0.483749    0.275041    0.658595     0.006663
CU3165   CU        0.518678    0.242274    0.661323     0.006663
CU3166   CU        0.519403    0.275390    0.697136     0.006663
CU3167   CU        0.557734    0.237590    0.695333     0.006663
CU3168   CU        0.556615    0.272411    0.664049     0.006663
CU3169   CU        0.592511    0.236403    0.657974     0.006663
CU3170   CU        0.591861    0.274068    0.698880     0.006663
AG3171   AG        0.628579    0.238919    0.696863     0.008887
CU3172   CU        0.629961    0.275907    0.663622     0.006663
AG3173   AG        0.669486    0.236275    0.659496     0.008887
AG3174   AG        0.667187    0.273098    0.699548     0.008887
AG3175   AG        0.708842    0.238635    0.700256     0.008887
AG3176   AG        0.709660    0.273266    0.658769     0.008887
AG3177   AG        0.751375    0.238878    0.660637     0.008887
AG3178   AG        0.751966    0.277334    0.697992     0.008887
AG3179   AG        0.793059    0.276317    0.660845     0.008887
AG3180   AG        0.107957    0.309552    0.695666     0.008887
AG3181   AG        0.110966    0.351386    0.656365     0.008887
AG3182   AG        0.149474    0.310574    0.657541     0.008887
AG3183   AG        0.151088    0.350890    0.694146     0.008887
AG3184   AG        0.190780    0.312135    0.693500     0.008887
CU3185   CU        0.197440    0.345940    0.656731     0.006663
CU3186   CU        0.229100    0.309888    0.656134     0.006663
CU3187   CU        0.229574    0.345887    0.689586     0.006663
CU3188   CU        0.264902    0.313304    0.694544     0.006663
CU3189   CU        0.272040    0.342214    0.656377     0.006663
CU3190   CU        0.303972    0.308181    0.657930     0.006663
CU3191   CU        0.306292    0.346022    0.688295     0.006663
CU3192   CU        0.338679    0.308453    0.689054     0.006663
CU3193   CU        0.340204    0.346805    0.655402     0.006663
CU3194   CU        0.374038    0.310685    0.655697     0.006663
CU3195   CU        0.375149    0.346610    0.686824     0.006663
CU3196   CU        0.412445    0.313088    0.688161     0.006663
CU3197   CU        0.412931    0.348622    0.655562     0.006663
CU3198   CU        0.451135    0.308853    0.656406     0.006663
CU3199   CU        0.450724    0.344467    0.692156     0.006663
CU3200   CU        0.483981    0.309007    0.692270     0.006663
CU3201   CU        0.486380    0.345323    0.657747     0.006663
CU3202   CU        0.521693    0.307296    0.660034     0.006663
CU3203   CU        0.516494    0.344547    0.693553     0.006663
CU3204   CU        0.554208    0.309936    0.699084     0.006663
CU3205   CU        0.554152    0.343650    0.659836     0.006663
CU3206   CU        0.589452    0.307681    0.661460     0.006663
CU3207   CU        0.589069    0.343545    0.695404     0.006663
CU3208   CU        0.626346    0.308035    0.697533     0.006663
CU3209   CU        0.628270    0.343445    0.663147     0.006663
CU3210   CU        0.664846    0.309836    0.663149     0.006663
CU3211   CU        0.666173    0.350303    0.697456     0.006663
AG3212   AG        0.706287    0.313129    0.697341     0.008887
CU3213   CU        0.703629    0.356027    0.668617     0.006663
AG3214   AG        0.746917    0.312644    0.658917     0.008887
AG3215   AG        0.743452    0.349434    0.699099     0.008887
AG3216   AG        0.793062    0.314676    0.701667     0.008887
AG3217   AG        0.785044    0.351909    0.661412     0.008887
AG3218   AG        0.061940    0.368337    0.662622     0.008887
AG3219   AG        0.100432    0.370041    0.707142     0.008887
AG3220   AG        0.107894    0.406369    0.663959     0.008887
AG3221   AG        0.157960    0.385543    0.657675     0.008887
AG3222   AG        0.144428    0.408704    0.706107     0.008887
AG3223   AG        0.194587    0.384978    0.693779     0.008887
CU3224   CU        0.198544    0.417022    0.648743     0.006663
CU3225   CU        0.232265    0.381413    0.658852     0.006663
CU3226   CU        0.234623    0.415425    0.689211     0.006663
CU3227   CU        0.267628    0.381023    0.690800     0.006663
CU3228   CU        0.270672    0.414215    0.654994     0.006663
CU3229   CU        0.303885    0.380058    0.655551     0.006663
CU3230   CU        0.306271    0.414112    0.689126     0.006663
CU3231   CU        0.344274    0.382857    0.689542     0.006663
CU3232   CU        0.342784    0.411574    0.654871     0.006663
CU3233   CU        0.377401    0.379311    0.655333     0.006663
CU3234   CU        0.377494    0.414669    0.689087     0.006663
CU3235   CU        0.413185    0.380044    0.689580     0.006663
CU3236   CU        0.412304    0.412462    0.654764     0.006663
CU3237   CU        0.450314    0.379967    0.654104     0.006663
CU3238   CU        0.447317    0.414016    0.688154     0.006663
CU3239   CU        0.483067    0.377940    0.693859     0.006663
CU3240   CU        0.483047    0.413110    0.656754     0.006663
CU3241   CU        0.518914    0.381769    0.659882     0.006663
CU3242   CU        0.518883    0.413064    0.694841     0.006663
CU3243   CU        0.552390    0.380142    0.696096     0.006663
CU3244   CU        0.553337    0.416599    0.661209     0.006663
CU3245   CU        0.587762    0.379355    0.662418     0.006663
CU3246   CU        0.590270    0.415264    0.697823     0.006663
CU3247   CU        0.621217    0.377270    0.695284     0.006663
CU3248   CU        0.623017    0.416391    0.660375     0.006663
CU3249   CU        0.661684    0.384065    0.658527     0.006663
CU3250   CU        0.656194    0.418898    0.694482     0.006663
AG3251   AG        0.702257    0.395764    0.704584     0.008887
CU3252   CU        0.692616    0.417069    0.659233     0.006663
AG3253   AG        0.743992    0.396424    0.669577     0.008887
AG3254   AG        0.750053    0.428895    0.713824     0.008887
AG3255   AG        0.785221    0.383512    0.707646     0.008887
AG3256   AG        0.790743    0.425658    0.672984     0.008887
AG3257   AG        0.832702    0.384934    0.666044     0.008887
AG3258   AG        0.062163    0.442525    0.660438     0.008887
AG3259   AG        0.101965    0.445932    0.705207     0.008887
AG3260   AG        0.109851    0.478204    0.662798     0.008887
AG3261   AG        0.153163    0.438757    0.657395     0.008887
AG3262   AG        0.149516    0.477405    0.698866     0.008887
AG3263   AG        0.190652    0.443220    0.696315     0.008887
CU3264   CU        0.195897    0.479448    0.653590     0.006663
CU3265   CU        0.233066    0.448686    0.655660     0.006663
CU3266   CU        0.238872    0.479093    0.693560     0.006663
CU3267   CU        0.273509    0.448024    0.687500     0.006663
CU3268   CU        0.270625    0.482638    0.653854     0.006663
CU3269   CU        0.307377    0.450222    0.656359     0.006663
CU3270   CU        0.307019    0.480392    0.691673     0.006663
CU3271   CU        0.340037    0.447764    0.686737     0.006663
CU3272   CU        0.339833    0.483010    0.656924     0.006663
CU3273   CU        0.379501    0.446039    0.656196     0.006663
CU3274   CU        0.374377    0.481920    0.690910     0.006663
CU3275   CU        0.412384    0.447788    0.691051     0.006663
CU3276   CU        0.409673    0.485461    0.658644     0.006663
CU3277   CU        0.445248    0.449317    0.657770     0.006663
CU3278   CU        0.445636    0.483129    0.691015     0.006663
CU3279   CU        0.482920    0.445187    0.692228     0.006663
CU3280   CU        0.481816    0.482950    0.662132     0.006663
CU3281   CU        0.521631    0.449869    0.660296     0.006663
CU3282   CU        0.517264    0.484880    0.692771     0.006663
CU3283   CU        0.556110    0.451311    0.694565     0.006663
CU3284   CU        0.556243    0.486148    0.663529     0.006663
CU3285   CU        0.589056    0.452462    0.661410     0.006663
CU3286   CU        0.588322    0.487763    0.697461     0.006663
CU3287   CU        0.622996    0.451510    0.696472     0.006663
CU3288   CU        0.620898    0.487671    0.663542     0.006663
CU3289   CU        0.658063    0.453858    0.663397     0.006663
CU3290   CU        0.659254    0.486621    0.697990     0.006663
AG3291   AG        0.697883    0.446065    0.698516     0.008887
CU3292   CU        0.698320    0.487353    0.666151     0.006663
AG3293   AG        0.735953    0.449784    0.662442     0.008887
AG3294   AG        0.742559    0.480641    0.707119     0.008887
AG3295   AG        0.794493    0.458592    0.722580     0.008887
AG3296   AG        0.783215    0.477639    0.673930     0.008887
AG3297   AG        0.837221    0.452571    0.682477     0.008887
AG3298   AG        0.068657    0.520079    0.667428     0.008887
AG3299   AG        0.108073    0.516697    0.703359     0.008887
AG3300   AG        0.111587    0.549998    0.663064     0.008887
AG3301   AG        0.153021    0.510842    0.658336     0.008887
AG3302   AG        0.156718    0.545908    0.699715     0.008887
AG3303   AG        0.196755    0.510983    0.692989     0.008887
CU3304   CU        0.195876    0.546125    0.657408     0.006663
CU3305   CU        0.233592    0.513416    0.656566     0.006663
CU3306   CU        0.230247    0.550100    0.692061     0.006663
CU3307   CU        0.267919    0.516802    0.691860     0.006663
CU3308   CU        0.268077    0.553054    0.658944     0.006663
CU3309   CU        0.304921    0.516221    0.662360     0.006663
CU3310   CU        0.304535    0.552344    0.695197     0.006663
CU3311   CU        0.341795    0.518401    0.693260     0.006663
CU3312   CU        0.342940    0.554257    0.662163     0.006663
CU3313   CU        0.375880    0.516974    0.659123     0.006663
CU3314   CU        0.377763    0.550824    0.695293     0.006663
CU3315   CU        0.413319    0.518475    0.693332     0.006663
CU3316   CU        0.413080    0.555019    0.664225     0.006663
CU3317   CU        0.447770    0.523739    0.658136     0.006663
CU3318   CU        0.450784    0.555017    0.695498     0.006663
CU3319   CU        0.483659    0.521991    0.693332     0.006663
CU3320   CU        0.484598    0.555210    0.662255     0.006663
CU3321   CU        0.520641    0.517736    0.662328     0.006663
CU3322   CU        0.521462    0.555714    0.695629     0.006663
CU3323   CU        0.553206    0.521883    0.696407     0.006663
CU3324   CU        0.555015    0.556667    0.660581     0.006663
CU3325   CU        0.589506    0.520931    0.662761     0.006663
CU3326   CU        0.589277    0.555801    0.698299     0.006663
CU3327   CU        0.621839    0.521456    0.700961     0.006663
CU3328   CU        0.625763    0.559883    0.663799     0.006663
CU3329   CU        0.664030    0.524513    0.662732     0.006663
CU3330   CU        0.662865    0.557414    0.694486     0.006663
AG3331   AG        0.700752    0.518022    0.705660     0.008887
CU3332   CU        0.698857    0.558379    0.668636     0.006663
AG3333   AG        0.740658    0.517242    0.670902     0.008887
AG3334   AG        0.739361    0.554783    0.707166     0.008887
AG3335   AG        0.783345    0.519619    0.712555     0.008887
AG3336   AG        0.779388    0.554422    0.668872     0.008887
AG3337   AG        0.823892    0.520848    0.671247     0.008887
AG3338   AG        0.110573    0.585684    0.703628     0.008887
AG3339   AG        0.109724    0.619109    0.658815     0.008887
AG3340   AG        0.153087    0.585499    0.661881     0.008887
AG3341   AG        0.150638    0.623682    0.701784     0.008887
AG3342   AG        0.190923    0.586242    0.700155     0.008887
AG3343   AG        0.193437    0.623248    0.662213     0.008887
CU3344   CU        0.229744    0.589203    0.662334     0.006663
AG3345   AG        0.230718    0.621843    0.702859     0.008887
CU3346   CU        0.272277    0.583517    0.701216     0.006663
CU3347   CU        0.265153    0.619323    0.657893     0.006663
CU3348   CU        0.302445    0.589165    0.662237     0.006663
CU3349   CU        0.304649    0.622516    0.696864     0.006663
CU3350   CU        0.341336    0.587381    0.697800     0.006663
CU3351   CU        0.338335    0.621210    0.660727     0.006663
CU3352   CU        0.378043    0.591377    0.665533     0.006663
CU3353   CU        0.378803    0.622412    0.700083     0.006663
CU3354   CU        0.412684    0.587691    0.701104     0.006663
CU3355   CU        0.413493    0.623517    0.662657     0.006663
CU3356   CU        0.448842    0.588807    0.659322     0.006663
CU3357   CU        0.449223    0.623225    0.695744     0.006663
CU3358   CU        0.490543    0.591268    0.696547     0.006663
CU3359   CU        0.484541    0.626753    0.659568     0.006663
CU3360   CU        0.520266    0.593155    0.662476     0.006663
CU3361   CU        0.518660    0.629614    0.697016     0.006663
CU3362   CU        0.551839    0.590550    0.701008     0.006663
CU3363   CU        0.551851    0.630216    0.661746     0.006663
CU3364   CU        0.585205    0.593802    0.666439     0.006663
CU3365   CU        0.586001    0.631567    0.701101     0.006663
CU3366   CU        0.626165    0.592916    0.699564     0.006663
CU3367   CU        0.622371    0.628227    0.665359     0.006663
CU3368   CU        0.662028    0.597760    0.666014     0.006663
AG3369   AG        0.665288    0.630675    0.706178     0.008887
AG3370   AG        0.704240    0.593075    0.708186     0.008887
AG3371   AG        0.698789    0.632976    0.668672     0.008887
AG3372   AG        0.738589    0.595725    0.667831     0.008887
AG3373   AG        0.747642    0.635879    0.711451     0.008887
AG3374   AG        0.780368    0.592248    0.706615     0.008887
AG3375   AG        0.781534    0.629483    0.664622     0.008887
AG3376   AG        0.152233    0.663479    0.664397     0.008887
AG3377   AG        0.190885    0.662023    0.704627     0.008887
AG3378   AG        0.192217    0.700528    0.663971     0.008887
AG3379   AG        0.231957    0.661733    0.664830     0.008887
AG3380   AG        0.232634    0.702332    0.708618     0.008887
AG3381   AG        0.272067    0.657750    0.699470     0.008887
AG3382   AG        0.273279    0.697630    0.662236     0.008887
CU3383   CU        0.301549    0.659302    0.658428     0.006663
AG3384   AG        0.309146    0.700315    0.705209     0.008887
CU3385   CU        0.339991    0.656498    0.698472     0.006663
CU3386   CU        0.337237    0.691742    0.657797     0.006663
CU3387   CU        0.376745    0.657649    0.660341     0.006663
AG3388   AG        0.379929    0.698748    0.698620     0.008887
CU3389   CU        0.415030    0.658628    0.695844     0.006663
CU3390   CU        0.411425    0.691214    0.658082     0.006663
CU3391   CU        0.446404    0.659689    0.659936     0.006663
AG3392   AG        0.447571    0.703210    0.699551     0.008887
CU3393   CU        0.477503    0.662381    0.696675     0.006663
CU3394   CU        0.478301    0.698193    0.660084     0.006663
CU3395   CU        0.515500    0.664862    0.663334     0.006663
AG3396   AG        0.507922    0.702172    0.702433     0.008887
CU3397   CU        0.553489    0.665400    0.699595     0.006663
CU3398   CU        0.549597    0.703412    0.663832     0.006663
CU3399   CU        0.590769    0.666543    0.661386     0.006663
AG3400   AG        0.583930    0.706830    0.702381     0.008887
AG3401   AG        0.621587    0.668239    0.702913     0.008887
AG3402   AG        0.621301    0.710529    0.664005     0.008887
AG3403   AG        0.663639    0.673336    0.665385     0.008887
AG3404   AG        0.659179    0.711991    0.703852     0.008887
AG3405   AG        0.701615    0.672732    0.703355     0.008887
AG3406   AG        0.702659    0.714341    0.665194     0.008887
AG3407   AG        0.741720    0.671114    0.663767     0.008887
AG3408   AG        0.234597    0.738441    0.666103     0.008887
AG3409   AG        0.273354    0.745075    0.708553     0.008887
AG3410   AG        0.273924    0.782854    0.666037     0.008887
AG3411   AG        0.311091    0.740732    0.665169     0.008887
AG3412   AG        0.310218    0.784932    0.711887     0.008887
AG3413   AG        0.345811    0.741313    0.707047     0.008887
AG3414   AG        0.347319    0.780854    0.668969     0.008887
AG3415   AG        0.389177    0.742934    0.670561     0.008887
AG3416   AG        0.382274    0.782121    0.710794     0.008887
AG3417   AG        0.425601    0.750057    0.716582     0.008887
AG3418   AG        0.421295    0.790037    0.676803     0.008887
AG3419   AG        0.441703    0.735755    0.662341     0.008887
AG3420   AG        0.459371    0.798967    0.721881     0.008887
AG3421   AG        0.478492    0.748962    0.711586     0.008887
AG3422   AG        0.470492    0.783326    0.668693     0.008887
AG3423   AG        0.505570    0.743267    0.667373     0.008887
AG3424   AG        0.508608    0.792978    0.710949     0.008887
AG3425   AG        0.545687    0.748270    0.706856     0.008887
AG3426   AG        0.539074    0.784592    0.667876     0.008887
AG3427   AG        0.579900    0.749620    0.668261     0.008887
AG3428   AG        0.578104    0.791951    0.703609     0.008887
AG3429   AG        0.620409    0.748620    0.704811     0.008887
AG3430   AG        0.619194    0.789924    0.666393     0.008887
AG3431   AG        0.658124    0.750509    0.662294     0.008887
AG3432   AG        0.381282    0.828307    0.681818     0.008887
AG3433   AG        0.457359    0.833923    0.681946     0.008887
AG3434   AG        0.510627    0.830454    0.668872     0.008887
AG3435   AG        0.416191    0.113460    0.753033     0.008887
AG3436   AG        0.495307    0.112347    0.751489     0.008887
AG3437   AG        0.269737    0.195038    0.738162     0.008887
AG3438   AG        0.312908    0.154838    0.742786     0.008887
AG3439   AG        0.306495    0.194517    0.779177     0.008887
AG3440   AG        0.344589    0.202513    0.738804     0.008887
AG3441   AG        0.377656    0.155179    0.747675     0.008887
AG3442   AG        0.374536    0.197503    0.785990     0.008887
AG3443   AG        0.413047    0.157001    0.789724     0.008887
AG3444   AG        0.415344    0.195907    0.747944     0.008887
AG3445   AG        0.452159    0.150847    0.754076     0.008887
AG3446   AG        0.451431    0.195643    0.791301     0.008887
AG3447   AG        0.489829    0.157201    0.791358     0.008887
AG3448   AG        0.470737    0.197337    0.740158     0.008887
AG3449   AG        0.515283    0.162807    0.737766     0.008887
AG3450   AG        0.545434    0.164510    0.780322     0.008887
AG3451   AG        0.550933    0.199309    0.735153     0.008887
AG3452   AG        0.592315    0.156745    0.736024     0.008887
AG3453   AG        0.594833    0.192060    0.779185     0.008887
AG3454   AG        0.631086    0.196125    0.732300     0.008887
AG3455   AG        0.186703    0.270425    0.737234     0.008887
AG3456   AG        0.227922    0.233391    0.735035     0.008887
AG3457   AG        0.225232    0.280611    0.780127     0.008887
AG3458   AG        0.267065    0.245016    0.775587     0.008887
AG3459   AG        0.267248    0.275439    0.733050     0.008887
AG3460   AG        0.305519    0.239382    0.736648     0.008887
AG3461   AG        0.309040    0.282300    0.772861     0.008887
AG3462   AG        0.342349    0.240114    0.773537     0.008887
AG3463   AG        0.340476    0.275847    0.731564     0.008887
AG3464   AG        0.380839    0.240949    0.734788     0.008887
AG3465   AG        0.376545    0.279168    0.778679     0.008887
AG3466   AG        0.413009    0.238673    0.784305     0.008887
CU3467   CU        0.406456    0.283160    0.728827     0.006663
AG3468   AG        0.440907    0.244019    0.732532     0.008887
AG3469   AG        0.467291    0.249177    0.778408     0.008887
AG3470   AG        0.506072    0.208564    0.780235     0.008887
CU3471   CU        0.483136    0.276796    0.727929     0.006663
AG3472   AG        0.512342    0.237874    0.735280     0.008887
AG3473   AG        0.518318    0.269875    0.774498     0.008887
AG3474   AG        0.553176    0.229907    0.777548     0.008887
AG3475   AG        0.554205    0.271330    0.736000     0.008887
AG3476   AG        0.593191    0.232549    0.739111     0.008887
AG3477   AG        0.588147    0.272215    0.778233     0.008887
AG3478   AG        0.632901    0.231863    0.776674     0.008887
AG3479   AG        0.631948    0.272496    0.739715     0.008887
AG3480   AG        0.669327    0.236489    0.738417     0.008887
AG3481   AG        0.669516    0.274712    0.780893     0.008887
AG3482   AG        0.709745    0.277644    0.739453     0.008887
AG3483   AG        0.150435    0.310334    0.731172     0.008887
AG3484   AG        0.181569    0.311732    0.779666     0.008887
AG3485   AG        0.187551    0.349099    0.737085     0.008887
AG3486   AG        0.227016    0.312557    0.733075     0.008887
AG3487   AG        0.223519    0.345304    0.776136     0.008887
AG3488   AG        0.266959    0.313675    0.774087     0.008887
AG3489   AG        0.263947    0.352139    0.731062     0.008887
AG3490   AG        0.303356    0.313595    0.731081     0.008887
AG3491   AG        0.301547    0.354879    0.768327     0.008887
AG3492   AG        0.345730    0.321568    0.764929     0.008887
CU3493   CU        0.339519    0.348733    0.722172     0.006663
CU3494   CU        0.373109    0.314176    0.721327     0.006663
CU3495   CU        0.395739    0.328237    0.762377     0.006663
AG3496   AG        0.430803    0.288585    0.771189     0.008887
CU3497   CU        0.411137    0.342785    0.721784     0.006663
CU3498   CU        0.445654    0.308674    0.724471     0.006663
CU3499   CU        0.439836    0.339885    0.758974     0.006663
AG3500   AG        0.477970    0.304958    0.767907     0.008887
CU3501   CU        0.481612    0.339609    0.731031     0.006663
CU3502   CU        0.519804    0.308780    0.731729     0.006663
CU3503   CU        0.512586    0.343525    0.773938     0.006663
AG3504   AG        0.553898    0.310412    0.775344     0.008887
CU3505   CU        0.551408    0.346810    0.733872     0.006663
AG3506   AG        0.591555    0.313974    0.734264     0.008887
AG3507   AG        0.586871    0.349812    0.774821     0.008887
AG3508   AG        0.623936    0.313067    0.773147     0.008887
AG3509   AG        0.629528    0.350850    0.736419     0.008887
AG3510   AG        0.667398    0.311338    0.737755     0.008887
AG3511   AG        0.666305    0.350417    0.778799     0.008887
AG3512   AG        0.707999    0.314302    0.781444     0.008887
AG3513   AG        0.702870    0.350730    0.736944     0.008887
AG3514   AG        0.750487    0.316391    0.741829     0.008887
AG3515   AG        0.098657    0.409669    0.745986     0.008887
AG3516   AG        0.139412    0.369860    0.745386     0.008887
AG3517   AG        0.138378    0.411939    0.785752     0.008887
AG3518   AG        0.179612    0.376809    0.783150     0.008887
AG3519   AG        0.180912    0.411654    0.744130     0.008887
AG3520   AG        0.228101    0.388289    0.734465     0.008887
AG3521   AG        0.214610    0.418853    0.783557     0.008887
AG3522   AG        0.260133    0.384941    0.780444     0.008887
CU3523   CU        0.268787    0.416950    0.723224     0.006663
CU3524   CU        0.301964    0.381925    0.724012     0.006663
AG3525   AG        0.305460    0.415161    0.764289     0.008887
CU3526   CU        0.343018    0.380574    0.755977     0.006663
CU3527   CU        0.342117    0.412683    0.723845     0.006663
CU3528   CU        0.379966    0.378585    0.724811     0.006663
CU3529   CU        0.378068    0.413415    0.759226     0.006663
CU3530   CU        0.410741    0.377720    0.764524     0.006663
CU3531   CU        0.411919    0.413299    0.723218     0.006663
CU3532   CU        0.450267    0.380077    0.730317     0.006663
CU3533   CU        0.445233    0.416688    0.761773     0.006663
CU3534   CU        0.483028    0.381239    0.771260     0.006663
CU3535   CU        0.483898    0.414674    0.729268     0.006663
CU3536   CU        0.513236    0.374809    0.735257     0.006663
CU3537   CU        0.514294    0.413181    0.765643     0.006663
CU3538   CU        0.547663    0.379315    0.771346     0.006663
CU3539   CU        0.550554    0.412328    0.732222     0.006663
CU3540   CU        0.587664    0.379046    0.731041     0.006663
AG3541   AG        0.586184    0.412451    0.770126     0.008887
AG3542   AG        0.628599    0.387588    0.783256     0.008887
CU3543   CU        0.621746    0.414755    0.734108     0.006663
AG3544   AG        0.664587    0.390587    0.741557     0.008887
AG3545   AG        0.671285    0.418521    0.784660     0.008887
AG3546   AG        0.710671    0.382148    0.786654     0.008887
AG3547   AG        0.710628    0.428663    0.751506     0.008887
AG3548   AG        0.743009    0.383635    0.742739     0.008887
AG3549   AG        0.751584    0.416963    0.791159     0.008887
AG3550   AG        0.788474    0.411657    0.754418     0.008887
AG3551   AG        0.100095    0.482649    0.745221     0.008887
AG3552   AG        0.139818    0.445897    0.745171     0.008887
AG3553   AG        0.129624    0.487048    0.789524     0.008887
AG3554   AG        0.172885    0.454746    0.785632     0.008887
AG3555   AG        0.185345    0.481797    0.741168     0.008887
AG3556   AG        0.229152    0.447000    0.730813     0.008887
AG3557   AG        0.221162    0.479712    0.779624     0.008887
AG3558   AG        0.261637    0.445477    0.774323     0.008887
CU3559   CU        0.273763    0.478187    0.728382     0.006663
CU3560   CU        0.306660    0.445195    0.723589     0.006663
AG3561   AG        0.307957    0.473961    0.768876     0.008887
CU3562   CU        0.346515    0.447697    0.759174     0.006663
CU3563   CU        0.339267    0.480864    0.724946     0.006663
CU3564   CU        0.377793    0.449642    0.724430     0.006663
CU3565   CU        0.379273    0.479645    0.761815     0.006663
CU3566   CU        0.412190    0.447596    0.758521     0.006663
CU3567   CU        0.412189    0.486051    0.725845     0.006663
CU3568   CU        0.446259    0.446436    0.724390     0.006663
CU3569   CU        0.444932    0.480279    0.758422     0.006663
CU3570   CU        0.481484    0.449802    0.758500     0.006663
CU3571   CU        0.479005    0.484325    0.726550     0.006663
CU3572   CU        0.518393    0.450662    0.727128     0.006663
CU3573   CU        0.513666    0.483013    0.764970     0.006663
CU3574   CU        0.546971    0.451483    0.764393     0.006663
CU3575   CU        0.551804    0.484462    0.727886     0.006663
CU3576   CU        0.586535    0.449492    0.734110     0.006663
AG3577   AG        0.585831    0.481569    0.775012     0.008887
AG3578   AG        0.625013    0.448246    0.777272     0.008887
CU3579   CU        0.621396    0.487347    0.736626     0.006663
AG3580   AG        0.659645    0.447046    0.737556     0.008887
AG3581   AG        0.662160    0.485433    0.778850     0.008887
AG3582   AG        0.713615    0.456332    0.797058     0.008887
AG3583   AG        0.705283    0.478594    0.742361     0.008887
AG3584   AG        0.755819    0.462137    0.759440     0.008887
AG3585   AG        0.752289    0.495867    0.805611     0.008887
AG3586   AG        0.795549    0.500223    0.766309     0.008887
AG3587   AG        0.144436    0.515348    0.744408     0.008887
AG3588   AG        0.179344    0.516741    0.785941     0.008887
AG3589   AG        0.191873    0.544202    0.737697     0.008887
AG3590   AG        0.231769    0.510770    0.732899     0.008887
AG3591   AG        0.227040    0.543892    0.778470     0.008887
AG3592   AG        0.268376    0.509579    0.773877     0.008887
AG3593   AG        0.268730    0.546387    0.735712     0.008887
CU3594   CU        0.305754    0.513324    0.728317     0.006663
AG3595   AG        0.308567    0.545523    0.772504     0.008887
CU3596   CU        0.345781    0.511552    0.767212     0.006663
CU3597   CU        0.339049    0.548409    0.730174     0.006663
CU3598   CU        0.375605    0.516751    0.727306     0.006663
CU3599   CU        0.379824    0.546612    0.768192     0.006663
CU3600   CU        0.414640    0.515598    0.765009     0.006663
CU3601   CU        0.412370    0.551162    0.728352     0.006663
CU3602   CU        0.448666    0.520156    0.726819     0.006663
CU3603   CU        0.450126    0.551588    0.762504     0.006663
CU3604   CU        0.481372    0.518318    0.761713     0.006663
CU3605   CU        0.487082    0.556106    0.726507     0.006663
CU3606   CU        0.518574    0.519110    0.728489     0.006663
CU3607   CU        0.515148    0.550963    0.766376     0.006663
CU3608   CU        0.548975    0.516968    0.769824     0.006663
CU3609   CU        0.550371    0.553014    0.733691     0.006663
CU3610   CU        0.585992    0.520577    0.733323     0.006663
AG3611   AG        0.580524    0.556728    0.778033     0.008887
AG3612   AG        0.619525    0.519681    0.778340     0.008887
AG3613   AG        0.623208    0.558977    0.737467     0.008887
AG3614   AG        0.658858    0.520714    0.738942     0.008887
AG3615   AG        0.661561    0.550421    0.783618     0.008887
AG3616   AG        0.704150    0.516018    0.788537     0.008887
AG3617   AG        0.702233    0.555530    0.747608     0.008887
AG3618   AG        0.746133    0.516412    0.750417     0.008887
AG3619   AG        0.149712    0.584949    0.739948     0.008887
AG3620   AG        0.188309    0.582850    0.781084     0.008887
AG3621   AG        0.190900    0.623955    0.741553     0.008887
AG3622   AG        0.228304    0.584148    0.741256     0.008887
AG3623   AG        0.229820    0.626463    0.780588     0.008887
AG3624   AG        0.267214    0.584359    0.780342     0.008887
AG3625   AG        0.269450    0.620897    0.741044     0.008887
AG3626   AG        0.307045    0.584184    0.737484     0.008887
AG3627   AG        0.308395    0.622432    0.781400     0.008887
AG3628   AG        0.347924    0.586947    0.778261     0.008887
AG3629   AG        0.342152    0.622197    0.736805     0.008887
CU3630   CU        0.375169    0.581092    0.731885     0.006663
AG3631   AG        0.386641    0.626923    0.777273     0.008887
AG3632   AG        0.413447    0.584766    0.766533     0.008887
CU3633   CU        0.415714    0.622043    0.730844     0.006663
CU3634   CU        0.449388    0.588031    0.730587     0.006663
AG3635   AG        0.447906    0.625881    0.777193     0.008887
AG3636   AG        0.483115    0.589729    0.768051     0.008887
CU3637   CU        0.481792    0.622335    0.730111     0.006663
CU3638   CU        0.519853    0.592047    0.734454     0.006663
AG3639   AG        0.502494    0.635311    0.784399     0.008887
AG3640   AG        0.540604    0.595970    0.778916     0.008887
AG3641   AG        0.547563    0.633411    0.740646     0.008887
AG3642   AG        0.585247    0.595487    0.740711     0.008887
AG3643   AG        0.585875    0.631922    0.783616     0.008887
AG3644   AG        0.623200    0.590588    0.781426     0.008887
AG3645   AG        0.627150    0.630889    0.744675     0.008887
AG3646   AG        0.664999    0.591792    0.746304     0.008887
AG3647   AG        0.663381    0.633160    0.784075     0.008887
AG3648   AG        0.702671    0.596299    0.786619     0.008887
AG3649   AG        0.704512    0.634419    0.743435     0.008887
AG3650   AG        0.744174    0.591753    0.748862     0.008887
AG3651   AG        0.232462    0.660406    0.741261     0.008887
AG3652   AG        0.267464    0.664534    0.782761     0.008887
AG3653   AG        0.271337    0.701024    0.741915     0.008887
AG3654   AG        0.307909    0.661930    0.741327     0.008887
AG3655   AG        0.308079    0.699819    0.783101     0.008887
AG3656   AG        0.347041    0.661418    0.778410     0.008887
AG3657   AG        0.345791    0.699379    0.743381     0.008887
AG3658   AG        0.385030    0.662050    0.737352     0.008887
AG3659   AG        0.376988    0.706325    0.790506     0.008887
AG3660   AG        0.416127    0.668209    0.785234     0.008887
AG3661   AG        0.429242    0.712138    0.757633     0.008887
AG3662   AG        0.451265    0.662555    0.738934     0.008887
AG3663   AG        0.462576    0.726013    0.802642     0.008887
AG3664   AG        0.471487    0.676723    0.790002     0.008887
AG3665   AG        0.477361    0.710207    0.750198     0.008887
AG3666   AG        0.505703    0.668056    0.741502     0.008887
AG3667   AG        0.512290    0.712635    0.792570     0.008887
AG3668   AG        0.544605    0.669333    0.782259     0.008887
AG3669   AG        0.542648    0.708752    0.744033     0.008887
AG3670   AG        0.585430    0.669147    0.746224     0.008887
AG3671   AG        0.582563    0.709276    0.783732     0.008887
AG3672   AG        0.626314    0.672537    0.784068     0.008887
AG3673   AG        0.621639    0.710222    0.743062     0.008887
AG3674   AG        0.663055    0.670477    0.743681     0.008887
AG3675   AG        0.309638    0.741850    0.746808     0.008887
AG3676   AG        0.383242    0.742171    0.747567     0.008887
AG3677   AG        0.410952    0.746633    0.792922     0.008887
AG3678   AG        0.412657    0.789607    0.755409     0.008887
AG3679   AG        0.458637    0.761437    0.764695     0.008887
AG3680   AG        0.499452    0.767390    0.807190     0.008887
AG3681   AG        0.493186    0.808875    0.767710     0.008887
AG3682   AG        0.510806    0.754307    0.756444     0.008887
AG3683   AG        0.580231    0.752900    0.747908     0.008887
AG3684   AG        0.305762    0.234594    0.814335     0.008887
AG3685   AG        0.371220    0.240379    0.821167     0.008887
AG3686   AG        0.411777    0.277287    0.823535     0.008887
AG3687   AG        0.447391    0.237438    0.829031     0.008887
AG3688   AG        0.442350    0.278084    0.869282     0.008887
AG3689   AG        0.506399    0.253100    0.821995     0.008887
AG3690   AG        0.543806    0.210284    0.830359     0.008887
AG3691   AG        0.554917    0.265081    0.820687     0.008887
AG3692   AG        0.218666    0.314013    0.827566     0.008887
AG3693   AG        0.272236    0.280689    0.816325     0.008887
AG3694   AG        0.262509    0.347024    0.823034     0.008887
AG3695   AG        0.334510    0.280710    0.823961     0.008887
AG3696   AG        0.311539    0.327271    0.812330     0.008887
AG3697   AG        0.368224    0.319093    0.815393     0.008887
AG3698   AG        0.341621    0.321866    0.863917     0.008887
AG3699   AG        0.397560    0.315334    0.861840     0.008887
AG3700   AG        0.419985    0.328096    0.808617     0.008887
AG3701   AG        0.463695    0.288965    0.815777     0.008887
AG3702   AG        0.448076    0.329956    0.858372     0.008887
AG3703   AG        0.492599    0.285553    0.864892     0.008887
AG3704   AG        0.471600    0.341288    0.806820     0.008887
AG3705   AG        0.513847    0.306483    0.810417     0.008887
AG3706   AG        0.505521    0.342806    0.852176     0.008887
AG3707   AG        0.548384    0.306558    0.857912     0.008887
AG3708   AG        0.550786    0.345679    0.815341     0.008887
AG3709   AG        0.593641    0.308155    0.818650     0.008887
AG3710   AG        0.586246    0.348383    0.858429     0.008887
AG3711   AG        0.630514    0.347335    0.822409     0.008887
AG3712   AG        0.218010    0.375236    0.823941     0.008887
AG3713   AG        0.250943    0.420072    0.824587     0.008887
AG3714   AG        0.298824    0.389710    0.815843     0.008887
AG3715   AG        0.295177    0.417848    0.861736     0.008887
AG3716   AG        0.342985    0.369544    0.838789     0.008887
AG3717   AG        0.347626    0.411052    0.798633     0.008887
AG3718   AG        0.375472    0.361000    0.797572     0.008887
AG3719   AG        0.342004    0.428075    0.848664     0.008887
AG3720   AG        0.401314    0.371396    0.845818     0.008887
AG3721   AG        0.397887    0.413384    0.807077     0.008887
AG3722   AG        0.436719    0.378509    0.805678     0.008887
AG3723   AG        0.432019    0.419011    0.849531     0.008887
AG3724   AG        0.469994    0.381468    0.850204     0.008887
AG3725   AG        0.468599    0.418783    0.807797     0.008887
AG3726   AG        0.512381    0.380996    0.811521     0.008887
AG3727   AG        0.509092    0.420487    0.847552     0.008887
AG3728   AG        0.546484    0.385622    0.855771     0.008887
AG3729   AG        0.545765    0.422134    0.805367     0.008887
AG3730   AG        0.585686    0.386666    0.818412     0.008887
AG3731   AG        0.606758    0.402062    0.872952     0.008887
AG3732   AG        0.636156    0.408653    0.828516     0.008887
AG3733   AG        0.677438    0.371374    0.827407     0.008887
AG3734   AG        0.208031    0.458766    0.829470     0.008887
AG3735   AG        0.249016    0.452017    0.869127     0.008887
AG3736   AG        0.260215    0.478623    0.818022     0.008887
AG3737   AG        0.302063    0.439834    0.813398     0.008887
AG3738   AG        0.265567    0.511872    0.861959     0.008887
AG3739   AG        0.308436    0.473484    0.859781     0.008887
AG3740   AG        0.306498    0.505232    0.815219     0.008887
AG3741   AG        0.347515    0.466896    0.806966     0.008887
AG3742   AG        0.354872    0.502572    0.850602     0.008887
AG3743   AG        0.387689    0.455128    0.847029     0.008887
AG3744   AG        0.387788    0.506212    0.806714     0.008887
AG3745   AG        0.428806    0.456680    0.807401     0.008887
AG3746   AG        0.425376    0.496737    0.845694     0.008887
AG3747   AG        0.464268    0.458978    0.847570     0.008887
AG3748   AG        0.459411    0.501492    0.802651     0.008887
AG3749   AG        0.498032    0.461295    0.807038     0.008887
AG3750   AG        0.516747    0.469890    0.857765     0.008887
AG3751   AG        0.563277    0.433817    0.858633     0.008887
AG3752   AG        0.551486    0.470815    0.812542     0.008887
AG3753   AG        0.595123    0.441663    0.819855     0.008887
AG3754   AG        0.581138    0.484094    0.857921     0.008887
AG3755   AG        0.627861    0.453307    0.865426     0.008887
AG3756   AG        0.618467    0.487332    0.821130     0.008887
AG3757   AG        0.663071    0.453284    0.822121     0.008887
AG3758   AG        0.217715    0.515667    0.823724     0.008887
AG3759   AG        0.228584    0.586819    0.820627     0.008887
AG3760   AG        0.268203    0.544570    0.816758     0.008887
AG3761   AG        0.270867    0.582045    0.859270     0.008887
AG3762   AG        0.310280    0.539506    0.853572     0.008887
AG3763   AG        0.307213    0.579996    0.817906     0.008887
AG3764   AG        0.349624    0.542642    0.810856     0.008887
AG3765   AG        0.353260    0.580115    0.857553     0.008887
AG3766   AG        0.391236    0.540241    0.855379     0.008887
AG3767   AG        0.390660    0.579048    0.813081     0.008887
AG3768   AG        0.424563    0.542725    0.804597     0.008887
AG3769   AG        0.446125    0.552099    0.854065     0.008887
AG3770   AG        0.478415    0.507201    0.851376     0.008887
AG3771   AG        0.480773    0.547642    0.805821     0.008887
AG3772   AG        0.516329    0.510968    0.807982     0.008887
AG3773   AG        0.494175    0.557590    0.858342     0.008887
AG3774   AG        0.537562    0.522236    0.856244     0.008887
AG3775   AG        0.537837    0.557340    0.816977     0.008887
AG3776   AG        0.576999    0.519004    0.815071     0.008887
AG3777   AG        0.581641    0.554426    0.856904     0.008887
AG3778   AG        0.622635    0.549005    0.822516     0.008887
AG3779   AG        0.666670    0.514066    0.826819     0.008887
AG3780   AG        0.270654    0.626024    0.820215     0.008887
AG3781   AG        0.309728    0.619892    0.856867     0.008887
AG3782   AG        0.316345    0.663720    0.823133     0.008887
AG3783   AG        0.350061    0.621087    0.820299     0.008887
AG3784   AG        0.411230    0.593236    0.861584     0.008887
AG3785   AG        0.410487    0.630498    0.824506     0.008887
AG3786   AG        0.445932    0.588659    0.816088     0.008887
AG3787   AG        0.428874    0.650363    0.871498     0.008887
AG3788   AG        0.462590    0.602610    0.869329     0.008887
AG3789   AG        0.466323    0.640267    0.825416     0.008887
AG3790   AG        0.496939    0.596706    0.823673     0.008887
AG3791   AG        0.537157    0.592990    0.860340     0.008887
AG3792   AG        0.545010    0.632139    0.824027     0.008887
AG3793   AG        0.583181    0.592682    0.818814     0.008887
AG3794   AG        0.377620    0.672483    0.832765     0.008887
AG3795   AG        0.434573    0.687200    0.831610     0.008887
AG3796   AG        0.508043    0.674644    0.829263     0.008887
AG3797   AG        0.388454    0.414303    0.880111     0.008887
AG3798   AG        0.434970    0.377834    0.890031     0.008887
AG3799   AG        0.474037    0.418098    0.889538     0.008887
AG3800   AG        0.351562    0.459041    0.894368     0.008887
AG3801   AG        0.390658    0.501370    0.895269     0.008887
AG3802   AG        0.427664    0.458937    0.886372     0.008887
AG3803   AG        0.484804    0.470461    0.899346     0.008887
AG3804   AG        0.525362    0.429285    0.900008     0.008887
AG3805   AG        0.445602    0.513442    0.893386     0.008887
