data_00001
_audit_creation_method   'DISCUS'

_data_chemical_name_common 'Pd.cell: Pearson 85'

_cell_length_a             53.0257
_cell_length_b             57.1046
_cell_length_c             57.1046
_cell_angle_alpha     90.0000
_cell_angle_beta      90.0000
_cell_angle_gamma     90.0000

_symmetry_space_group_name_H-M   'P1              '

loop_
_atom_site_label
_atom_site_symbol
_atom_site_fract_x
_atom_site_fract_y
_atom_site_fract_z
_atom_site_u_iso_or_equiv
NI1   NI        0.377527    0.241197    0.044562     0.004307
NI2   NI        0.450780    0.242426    0.042398     0.004307
NI3   NI        0.527604    0.244668    0.037435     0.004307
NI4   NI        0.304743    0.308661    0.047111     0.004307
NI5   NI        0.340038    0.277111    0.041936     0.004307
NI6   NI        0.377661    0.311844    0.041506     0.004307
NI7   NI        0.410883    0.277216    0.047940     0.004307
NI8   NI        0.452328    0.315125    0.042799     0.004307
NI9   NI        0.524696    0.280745    0.013180     0.004307
NI10   NI        0.527126    0.313279    0.039790     0.004307
NI11   NI        0.563423    0.279153    0.039870     0.004307
NI12   NI        0.599414    0.313663    0.039988     0.004307
NI13   NI        0.270140    0.341090    0.046886     0.004307
NI14   NI        0.303718    0.378561    0.043271     0.004307
NI15   NI        0.341358    0.346070    0.042492     0.004307
NI16   NI        0.377039    0.381392    0.041286     0.004307
NI17   NI        0.440551    0.334834    0.030105     0.004307
NI18   NI        0.414250    0.382169    0.008414     0.004307
NI19   NI        0.452681    0.348780    0.006178     0.004307
NI20   NI        0.450663    0.381877    0.041235     0.004307
NI21   NI        0.492095    0.376870    0.083385     0.004307
NI22   NI        0.488398    0.383074    0.007719     0.004307
NI23   NI        0.525983    0.383089    0.040051     0.004307
NI24   NI        0.563817    0.346952    0.039874     0.004307
NI25   NI        0.599330    0.380287    0.040850     0.004307
NI26   NI        0.675705    0.384016    0.046252     0.004307
NI27   NI        0.268134    0.414677    0.043279     0.004307
NI28   NI        0.302558    0.445788    0.044524     0.004307
NI29   NI        0.339914    0.413083    0.042546     0.004307
NI30   NI        0.378322    0.480774    0.010544     0.004307
NI31   NI        0.376055    0.448692    0.042835     0.004307
NI32   NI        0.376435    0.415279    0.008065     0.004307
NI33   NI        0.414540    0.447933    0.008732     0.004307
NI34   NI        0.452268    0.416135    0.006755     0.004307
NI35   NI        0.452555    0.448229    0.041232     0.004307
NI36   NI        0.488224    0.415912    0.041284     0.004307
NI37   NI        0.487888    0.449525    0.006555     0.004307
NI38   NI        0.525861    0.415285    0.006355     0.004307
NI39   NI        0.524651    0.448260    0.041833     0.004307
NI40   NI        0.562741    0.414665    0.040070     0.004307
NI41   NI        0.637007    0.484203    0.040942     0.004307
NI42   NI        0.638486    0.414216    0.042040     0.004307
NI43   NI        0.266382    0.481095    0.043232     0.004307
NI44   NI        0.302218    0.516680    0.043648     0.004307
NI45   NI        0.338958    0.480425    0.042364     0.004307
NI46   NI        0.377519    0.516609    0.042914     0.004307
NI47   NI        0.414583    0.481558    0.043040     0.004307
NI48   NI        0.451369    0.481656    0.008690     0.004307
NI49   NI        0.448441    0.524105    0.000714     0.004307
NI50   NI        0.486727    0.482082    0.041268     0.004307
NI51   NI        0.551602    0.528594    0.048781     0.004307
NI52   NI        0.560653    0.484206    0.041823     0.004307
NI53   NI        0.599009    0.517559    0.049947     0.004307
NI54   NI        0.625307    0.482769    0.040283     0.004307
NI55   NI        0.338383    0.550693    0.041752     0.004307
NI56   NI        0.376528    0.584151    0.041636     0.004307
NI57   NI        0.411421    0.552213    0.044611     0.004307
NI58   NI        0.449645    0.587034    0.042258     0.004307
NI59   NI        0.486280    0.551713    0.040827     0.004307
NI60   NI        0.520161    0.584690    0.042170     0.004307
NI61   NI        0.528717    0.550782    0.015202     0.004307
NI62   NI        0.303139    0.174749    0.110700     0.004307
NI63   NI        0.380072    0.174021    0.106130     0.004307
NI64   NI        0.387936    0.165216    0.130770     0.004307
NI65   NI        0.416419    0.173307    0.072719     0.004307
NI66   NI        0.453521    0.174200    0.106734     0.004307
NI67   NI        0.531199    0.135153    0.098048     0.004307
NI68   NI        0.491221    0.176223    0.072130     0.004307
NI69   NI        0.527207    0.174900    0.106940     0.004307
NI70   NI        0.566413    0.168532    0.099933     0.004307
NI71   NI        0.194166    0.280655    0.110177     0.004307
NI72   NI        0.267865    0.209059    0.112004     0.004307
NI73   NI        0.264479    0.272966    0.067626     0.004307
NI74   NI        0.306043    0.242057    0.108104     0.004307
NI75   NI        0.342478    0.208924    0.107731     0.004307
NI76   NI        0.339321    0.243134    0.074898     0.004307
NI77   NI        0.374734    0.192990    0.052004     0.004307
NI78   NI        0.372082    0.254453    0.104661     0.004307
NI79   NI        0.417866    0.208233    0.109124     0.004307
NI80   NI        0.409442    0.220187    0.073574     0.004307
NI81   NI        0.455476    0.207271    0.073414     0.004307
NI82   NI        0.453774    0.241802    0.107322     0.004307
NI83   NI        0.489753    0.209241    0.107340     0.004307
NI84   NI        0.490829    0.244595    0.074330     0.004307
NI85   NI        0.488970    0.209162    0.037932     0.004307
NI86   NI        0.521106    0.212125    0.150566     0.004307
NI87   NI        0.559706    0.208645    0.111925     0.004307
NI88   NI        0.563715    0.244300    0.071516     0.004307
NI89   NI        0.600323    0.243717    0.107037     0.004307
NI90   NI        0.639102    0.210827    0.107831     0.004307
NI91   NI        0.638180    0.243017    0.073312     0.004307
NI92   NI        0.673608    0.246024    0.107376     0.004307
NI93   NI        0.202076    0.279725    0.115220     0.004307
NI94   NI        0.239257    0.301752    0.096911     0.004307
NI95   NI        0.274543    0.274227    0.113216     0.004307
NI96   NI        0.260614    0.289396    0.057650     0.004307
NI97   NI        0.303726    0.275726    0.075762     0.004307
NI98   NI        0.286058    0.306269    0.094594     0.004307
NI99   NI        0.341797    0.276545    0.107868     0.004307
NI100   NI        0.374927    0.312714    0.052995     0.004307
NI101   NI        0.354933    0.274769    0.066429     0.004307
NI102   NI        0.391314    0.295493    0.085878     0.004307
PD103   PD        0.415708    0.277931    0.108357     0.005394
NI104   NI        0.415510    0.311299    0.075102     0.004307
NI105   NI        0.454449    0.276930    0.074006     0.004307
PD106   PD        0.452472    0.311641    0.107656     0.005394
NI107   NI        0.483207    0.275201    0.114136     0.004307
NI108   NI        0.489275    0.312309    0.074293     0.004307
NI109   NI        0.527155    0.276828    0.073729     0.004307
NI110   NI        0.490809    0.279962    0.106871     0.004307
NI111   NI        0.566060    0.279224    0.106660     0.004307
NI112   NI        0.563178    0.312921    0.073127     0.004307
NI113   NI        0.601992    0.278463    0.074079     0.004307
NI114   NI        0.599850    0.312434    0.107937     0.004307
NI115   NI        0.637308    0.277150    0.106170     0.004307
NI116   NI        0.638395    0.313601    0.074256     0.004307
NI117   NI        0.675511    0.312365    0.107936     0.004307
NI118   NI        0.712591    0.279074    0.107998     0.004307
NI119   NI        0.160752    0.378736    0.117072     0.004307
NI120   NI        0.196639    0.345941    0.119155     0.004307
NI121   NI        0.223947    0.369260    0.090751     0.004307
NI122   NI        0.234969    0.347474    0.083790     0.004307
NI123   NI        0.232010    0.383260    0.116799     0.004307
NI124   NI        0.242918    0.374429    0.131406     0.004307
NI125   NI        0.290945    0.376857    0.063809     0.004307
NI126   NI        0.306733    0.347510    0.076130     0.004307
NI127   NI        0.303705    0.378778    0.112546     0.004307
PD128   PD        0.341303    0.345501    0.108937     0.005394
NI129   NI        0.341055    0.378987    0.077380     0.004307
NI130   NI        0.377115    0.344556    0.076016     0.004307
PD131   PD        0.352304    0.374718    0.141922     0.005394
PD132   PD        0.417518    0.346195    0.109794     0.005394
NI133   NI        0.412811    0.380133    0.075421     0.004307
PD134   PD        0.452922    0.347839    0.074708     0.005394
PD135   PD        0.452881    0.381901    0.110686     0.005394
PD136   PD        0.490291    0.345958    0.107624     0.005394
NI137   NI        0.488717    0.382522    0.074351     0.004307
NI138   NI        0.526076    0.345816    0.074162     0.004307
PD139   PD        0.524692    0.380749    0.110549     0.005394
PD140   PD        0.562779    0.345338    0.110171     0.005394
NI141   NI        0.563128    0.380604    0.073720     0.004307
NI142   NI        0.599594    0.346955    0.074350     0.004307
PD143   PD        0.598979    0.379743    0.107837     0.005394
NI144   NI        0.636322    0.346182    0.108346     0.004307
NI145   NI        0.637709    0.380815    0.077325     0.004307
NI146   NI        0.674280    0.346573    0.074044     0.004307
NI147   NI        0.673464    0.380695    0.110360     0.004307
NI148   NI        0.711577    0.347916    0.108490     0.004307
NI149   NI        0.706469    0.384276    0.080612     0.004307
NI150   NI        0.747577    0.380061    0.109453     0.004307
NI151   NI        0.161360    0.448027    0.120868     0.004307
NI152   NI        0.193439    0.414690    0.112378     0.004307
NI153   NI        0.199178    0.444471    0.080655     0.004307
NI154   NI        0.231868    0.412354    0.078999     0.004307
NI155   NI        0.232588    0.448238    0.112264     0.004307
NI156   NI        0.271511    0.412580    0.119676     0.004307
NI157   NI        0.267142    0.449305    0.077113     0.004307
NI158   NI        0.308324    0.415586    0.082509     0.004307
NI159   NI        0.303138    0.482571    0.086160     0.004307
PD160   PD        0.342435    0.412656    0.113359     0.005394
NI161   NI        0.340338    0.448963    0.077494     0.004307
NI162   NI        0.376868    0.413795    0.078483     0.004307
PD163   PD        0.376852    0.447073    0.111202     0.005394
PD164   PD        0.413593    0.415078    0.110315     0.005394
NI165   NI        0.415163    0.449786    0.077628     0.004307
PD166   PD        0.452354    0.415094    0.075491     0.005394
PD167   PD        0.450879    0.447937    0.110178     0.005394
PD168   PD        0.487979    0.415221    0.111106     0.005394
PD169   PD        0.488477    0.450375    0.076170     0.005394
PD170   PD        0.524717    0.415908    0.075766     0.005394
PD171   PD        0.525679    0.449365    0.110058     0.005394
NI172   NI        0.597124    0.446987    0.113293     0.004307
NI173   NI        0.561865    0.450064    0.074681     0.004307
NI174   NI        0.619569    0.412775    0.085605     0.004307
NI175   NI        0.557255    0.486096    0.120027     0.004307
NI176   NI        0.635997    0.414693    0.110925     0.004307
NI177   NI        0.635476    0.451264    0.075154     0.004307
NI178   NI        0.670861    0.415529    0.075585     0.004307
NI179   NI        0.675031    0.483721    0.075076     0.004307
NI180   NI        0.719628    0.416662    0.137951     0.004307
NI181   NI        0.709449    0.448965    0.076067     0.004307
NI182   NI        0.746774    0.451128    0.110035     0.004307
NI183   NI        0.192956    0.517540    0.085606     0.004307
NI184   NI        0.226056    0.513356    0.054099     0.004307
NI185   NI        0.229341    0.515647    0.113361     0.004307
NI186   NI        0.266833    0.482993    0.112849     0.004307
NI187   NI        0.264191    0.513711    0.077819     0.004307
NI188   NI        0.302897    0.481357    0.075686     0.004307
NI189   NI        0.277384    0.518908    0.105924     0.004307
NI190   NI        0.339923    0.479740    0.112697     0.004307
NI191   NI        0.340024    0.516939    0.076999     0.004307
NI192   NI        0.378484    0.482485    0.078084     0.004307
PD193   PD        0.377116    0.517659    0.111094     0.005394
PD194   PD        0.413730    0.481695    0.110483     0.005394
NI195   NI        0.412084    0.514702    0.077802     0.004307
PD196   PD        0.450207    0.483773    0.076524     0.005394
PD197   PD        0.451178    0.516581    0.110282     0.005394
PD198   PD        0.486836    0.482570    0.109804     0.005394
PD199   PD        0.487891    0.516908    0.075563     0.005394
NI200   NI        0.523981    0.483666    0.076738     0.004307
PD201   PD        0.523703    0.516345    0.110804     0.005394
PD202   PD        0.561398    0.483426    0.110372     0.005394
NI203   NI        0.562024    0.518041    0.075911     0.004307
NI204   NI        0.598716    0.484780    0.076871     0.004307
PD205   PD        0.598456    0.517487    0.110231     0.005394
NI206   NI        0.633419    0.483036    0.110021     0.004307
NI207   NI        0.636791    0.518657    0.076450     0.004307
NI208   NI        0.723591    0.492659    0.063937     0.004307
NI209   NI        0.666340    0.515782    0.108643     0.004307
NI210   NI        0.710213    0.483244    0.109960     0.004307
NI211   NI        0.196296    0.552953    0.115228     0.004307
NI212   NI        0.195439    0.586790    0.086604     0.004307
NI213   NI        0.260698    0.574496    0.090980     0.004307
NI214   NI        0.265299    0.584677    0.079451     0.004307
NI215   NI        0.302698    0.550439    0.076521     0.004307
NI216   NI        0.302188    0.582842    0.112370     0.004307
NI217   NI        0.348046    0.554021    0.118204     0.004307
NI218   NI        0.338122    0.580934    0.078042     0.004307
NI219   NI        0.376129    0.549329    0.077076     0.004307
NI220   NI        0.376373    0.586142    0.111115     0.004307
PD221   PD        0.413242    0.548925    0.111430     0.005394
NI222   NI        0.412637    0.585456    0.075588     0.004307
NI223   NI        0.441729    0.533725    0.075827     0.004307
PD224   PD        0.448872    0.585291    0.111376     0.005394
PD225   PD        0.487731    0.550128    0.111158     0.005394
NI226   NI        0.496118    0.583116    0.078886     0.004307
NI227   NI        0.523629    0.551526    0.075876     0.004307
NI228   NI        0.525048    0.586422    0.110463     0.004307
PD229   PD        0.560712    0.551274    0.111348     0.005394
NI230   NI        0.562243    0.585439    0.076967     0.004307
NI231   NI        0.600063    0.551629    0.077896     0.004307
NI232   NI        0.597703    0.584011    0.111005     0.004307
NI233   NI        0.635921    0.552275    0.109836     0.004307
NI234   NI        0.635612    0.585866    0.075309     0.004307
NI235   NI        0.709342    0.619216    0.110332     0.004307
NI236   NI        0.669749    0.585067    0.109168     0.004307
NI237   NI        0.265116    0.619504    0.111870     0.004307
NI238   NI        0.302208    0.653533    0.116303     0.004307
NI239   NI        0.339679    0.618738    0.113019     0.004307
NI240   NI        0.380390    0.644255    0.109780     0.004307
NI241   NI        0.377169    0.655154    0.113027     0.004307
NI242   NI        0.412488    0.619646    0.111506     0.004307
NI243   NI        0.412947    0.653978    0.076100     0.004307
NI244   NI        0.449010    0.618349    0.074471     0.004307
NI245   NI        0.487617    0.687765    0.110560     0.004307
NI246   NI        0.490808    0.588942    0.103285     0.004307
NI247   NI        0.487488    0.654329    0.075211     0.004307
NI248   NI        0.521853    0.619266    0.076975     0.004307
NI249   NI        0.523968    0.653395    0.109135     0.004307
NI250   NI        0.561538    0.619668    0.109823     0.004307
NI251   NI        0.611551    0.666016    0.140317     0.004307
NI252   NI        0.635875    0.654187    0.076841     0.004307
NI253   NI        0.413318    0.688769    0.111646     0.004307
NI254   NI        0.523060    0.687042    0.075741     0.004307
NI255   NI        0.313265    0.066574    0.152566     0.004307
NI256   NI        0.381642    0.103575    0.175532     0.004307
NI257   NI        0.417272    0.070817    0.173632     0.004307
NI258   NI        0.415705    0.105125    0.140551     0.004307
NI259   NI        0.455045    0.103766    0.174318     0.004307
NI260   NI        0.491702    0.069918    0.173854     0.004307
NI261   NI        0.491407    0.103406    0.142755     0.004307
NI262   NI        0.526897    0.105192    0.175331     0.004307
NI263   NI        0.603000    0.103881    0.174821     0.004307
NI264   NI        0.231180    0.173017    0.177464     0.004307
NI265   NI        0.268691    0.138413    0.174586     0.004307
NI266   NI        0.268258    0.173497    0.141551     0.004307
NI267   NI        0.303643    0.140275    0.142530     0.004307
NI268   NI        0.306672    0.172914    0.176254     0.004307
NI269   NI        0.342585    0.138273    0.175170     0.004307
NI270   NI        0.343229    0.172690    0.142975     0.004307
NI271   NI        0.347379    0.136319    0.118145     0.004307
NI272   NI        0.380116    0.171583    0.174819     0.004307
NI273   NI        0.418856    0.137595    0.175198     0.004307
NI274   NI        0.417195    0.139739    0.105047     0.004307
NI275   NI        0.454027    0.139069    0.140691     0.004307
NI276   NI        0.454680    0.173751    0.179396     0.004307
NI277   NI        0.490842    0.138532    0.174181     0.004307
NI278   NI        0.492271    0.173200    0.139762     0.004307
NI279   NI        0.527947    0.139504    0.142895     0.004307
PD280   PD        0.529317    0.172347    0.175132     0.005394
NI281   NI        0.563103    0.138500    0.174128     0.004307
NI282   NI        0.563727    0.174350    0.141223     0.004307
NI283   NI        0.643046    0.135554    0.135154     0.004307
NI284   NI        0.622602    0.166563    0.159916     0.004307
NI285   NI        0.642473    0.168567    0.168535     0.004307
NI286   NI        0.644492    0.202345    0.138192     0.004307
NI287   NI        0.668770    0.176752    0.176950     0.004307
NI288   NI        0.162417    0.247314    0.179455     0.004307
NI289   NI        0.195744    0.210284    0.178022     0.004307
NI290   NI        0.194139    0.243450    0.144420     0.004307
NI291   NI        0.234853    0.213900    0.142136     0.004307
NI292   NI        0.230966    0.239540    0.177751     0.004307
NI293   NI        0.233605    0.206448    0.148990     0.004307
NI294   NI        0.270671    0.242474    0.147458     0.004307
NI295   NI        0.306861    0.208347    0.141909     0.004307
PD296   PD        0.306506    0.240962    0.176162     0.005394
PD297   PD        0.342055    0.206891    0.175712     0.005394
NI298   NI        0.354673    0.236461    0.122195     0.004307
NI299   NI        0.341908    0.241220    0.144037     0.004307
NI300   NI        0.360750    0.268663    0.171036     0.004307
PD301   PD        0.418318    0.207494    0.174648     0.005394
PD302   PD        0.417581    0.243134    0.142440     0.005394
PD303   PD        0.455367    0.207046    0.141078     0.005394
PD304   PD        0.456493    0.240664    0.175203     0.005394
NI305   NI        0.453268    0.213225    0.151204     0.004307
PD306   PD        0.489567    0.243284    0.141588     0.005394
NI307   NI        0.527234    0.207027    0.139835     0.004307
PD308   PD        0.529920    0.240745    0.174491     0.005394
PD309   PD        0.563839    0.207695    0.174718     0.005394
NI310   NI        0.562862    0.240151    0.142466     0.004307
NI311   NI        0.599293    0.208758    0.140821     0.004307
PD312   PD        0.602578    0.241487    0.175557     0.005394
NI313   NI        0.637298    0.209269    0.178364     0.004307
NI314   NI        0.639569    0.244931    0.141781     0.004307
NI315   NI        0.675560    0.211134    0.141094     0.004307
NI316   NI        0.677101    0.244916    0.177257     0.004307
NI317   NI        0.713504    0.208247    0.174943     0.004307
NI318   NI        0.710853    0.244844    0.140533     0.004307
NI319   NI        0.777186    0.265441    0.178606     0.004307
NI320   NI        0.128475    0.282204    0.181358     0.004307
NI321   NI        0.161734    0.281901    0.144472     0.004307
NI322   NI        0.163151    0.315186    0.181847     0.004307
NI323   NI        0.197524    0.278554    0.177672     0.004307
NI324   NI        0.200460    0.312270    0.148132     0.004307
NI325   NI        0.245236    0.287354    0.138247     0.004307
NI326   NI        0.232102    0.311008    0.181132     0.004307
NI327   NI        0.270443    0.277794    0.179615     0.004307
NI328   NI        0.259839    0.333092    0.122937     0.004307
NI329   NI        0.304888    0.275069    0.148763     0.004307
PD330   PD        0.308693    0.312538    0.176686     0.005394
PD331   PD        0.344581    0.307813    0.214281     0.005394
NI332   NI        0.325169    0.315198    0.134630     0.004307
PD333   PD        0.378678    0.276311    0.142854     0.005394
PD334   PD        0.377888    0.311324    0.177993     0.005394
NI335   NI        0.411643    0.282763    0.161335     0.004307
PD336   PD        0.415668    0.312400    0.142869     0.005394
PD337   PD        0.452811    0.277021    0.140471     0.005394
PD338   PD        0.437985    0.306045    0.194059     0.005394
PD339   PD        0.493220    0.275583    0.174666     0.005394
PD340   PD        0.491105    0.310465    0.140630     0.005394
PD341   PD        0.528653    0.276156    0.141783     0.005394
PD342   PD        0.528697    0.311642    0.176025     0.005394
PD343   PD        0.530479    0.246192    0.183128     0.005394
PD344   PD        0.564457    0.311052    0.143097     0.005394
PD345   PD        0.601528    0.276639    0.143032     0.005394
PD346   PD        0.601448    0.311158    0.177940     0.005394
PD347   PD        0.637969    0.279419    0.177190     0.005394
NI348   NI        0.637900    0.282641    0.115409     0.004307
NI349   NI        0.676070    0.277887    0.140882     0.004307
PD350   PD        0.675266    0.310836    0.176633     0.005394
NI351   NI        0.735843    0.270136    0.157202     0.004307
NI352   NI        0.711508    0.313901    0.142897     0.004307
NI353   NI        0.749344    0.278544    0.141087     0.004307
NI354   NI        0.745813    0.310403    0.178751     0.004307
NI355   NI        0.775149    0.278917    0.179552     0.004307
NI356   NI        0.054752    0.407616    0.182825     0.004307
NI357   NI        0.120407    0.344781    0.183393     0.004307
NI358   NI        0.124820    0.381512    0.154795     0.004307
NI359   NI        0.159171    0.347028    0.149455     0.004307
NI360   NI        0.159061    0.380386    0.182455     0.004307
NI361   NI        0.197612    0.348090    0.180674     0.004307
NI362   NI        0.195761    0.380542    0.147134     0.004307
NI363   NI        0.232352    0.345691    0.151574     0.004307
PD364   PD        0.234636    0.380026    0.179437     0.005394
PD365   PD        0.267553    0.344787    0.181301     0.005394
PD366   PD        0.264979    0.378925    0.144572     0.005394
NI367   NI        0.334617    0.330779    0.139020     0.004307
NI368   NI        0.275936    0.380209    0.154157     0.004307
PD369   PD        0.342984    0.344741    0.180547     0.005394
PD370   PD        0.340338    0.378085    0.147167     0.005394
PD371   PD        0.379973    0.346322    0.143737     0.005394
PD372   PD        0.377853    0.378266    0.178881     0.005394
PD373   PD        0.417660    0.346264    0.176313     0.005394
PD374   PD        0.416062    0.379786    0.145733     0.005394
NI375   NI        0.458513    0.318299    0.123916     0.004307
PD376   PD        0.452254    0.379305    0.179337     0.005394
PD377   PD        0.490297    0.346461    0.178986     0.005394
PD378   PD        0.489028    0.378602    0.144439     0.005394
PD379   PD        0.525897    0.346143    0.142181     0.005394
PD380   PD        0.525087    0.379850    0.178401     0.005394
PD381   PD        0.564150    0.345210    0.178243     0.005394
PD382   PD        0.561358    0.378949    0.145233     0.005394
PD383   PD        0.600081    0.346798    0.143827     0.005394
PD384   PD        0.600888    0.378352    0.178111     0.005394
PD385   PD        0.638968    0.344768    0.177571     0.005394
PD386   PD        0.635925    0.381426    0.143192     0.005394
NI387   NI        0.673574    0.347189    0.143175     0.004307
PD388   PD        0.673472    0.379582    0.178826     0.005394
PD389   PD        0.710307    0.344370    0.178787     0.005394
NI390   NI        0.696535    0.388146    0.125320     0.004307
NI391   NI        0.748470    0.346209    0.143287     0.004307
NI392   NI        0.746748    0.381220    0.178956     0.004307
NI393   NI        0.781236    0.346155    0.176977     0.004307
NI394   NI        0.785652    0.381511    0.144367     0.004307
NI395   NI        0.821013    0.412674    0.150271     0.004307
NI396   NI        0.064751    0.448636    0.198157     0.004307
NI397   NI        0.120264    0.432976    0.159318     0.004307
NI398   NI        0.124014    0.444142    0.152395     0.004307
NI399   NI        0.162623    0.414616    0.149179     0.004307
NI400   NI        0.160086    0.448847    0.181445     0.004307
PD401   PD        0.194970    0.412643    0.182183     0.005394
NI402   NI        0.196460    0.447996    0.149843     0.004307
NI403   NI        0.231165    0.414937    0.148620     0.004307
PD404   PD        0.232199    0.449438    0.182368     0.005394
PD405   PD        0.267699    0.412937    0.181848     0.005394
NI406   NI        0.270979    0.476813    0.118706     0.004307
PD407   PD        0.306865    0.412529    0.149616     0.005394
NI408   NI        0.296806    0.465043    0.159807     0.004307
PD409   PD        0.308264    0.407345    0.204068     0.005394
PD410   PD        0.341182    0.445368    0.146844     0.005394
PD411   PD        0.379527    0.413223    0.144676     0.005394
PD412   PD        0.376951    0.446851    0.179066     0.005394
PD413   PD        0.416976    0.414817    0.178010     0.005394
PD414   PD        0.415084    0.448120    0.144829     0.005394
PD415   PD        0.452603    0.414500    0.145408     0.005394
PD416   PD        0.451635    0.445733    0.180060     0.005394
PD417   PD        0.489388    0.413377    0.179129     0.005394
PD418   PD        0.486527    0.447427    0.144484     0.005394
PD419   PD        0.526109    0.413298    0.143915     0.005394
PD420   PD        0.524637    0.449603    0.178952     0.005394
PD421   PD        0.561086    0.413204    0.179519     0.005394
PD422   PD        0.560408    0.448110    0.143710     0.005394
NI423   NI        0.570151    0.441454    0.147066     0.004307
PD424   PD        0.598610    0.447728    0.179360     0.005394
PD425   PD        0.635742    0.413540    0.178851     0.005394
PD426   PD        0.635367    0.448839    0.144167     0.005394
PD427   PD        0.671405    0.413969    0.143676     0.005394
PD428   PD        0.672537    0.447810    0.178087     0.005394
NI429   NI        0.719027    0.404392    0.202557     0.004307
NI430   NI        0.701894    0.436549    0.118986     0.004307
NI431   NI        0.742471    0.457612    0.138174     0.004307
NI432   NI        0.747127    0.450062    0.181944     0.004307
NI433   NI        0.783373    0.413131    0.179706     0.004307
NI434   NI        0.813295    0.419584    0.144913     0.004307
NI435   NI        0.816400    0.446256    0.180914     0.004307
NI436   NI        0.118482    0.481004    0.180809     0.004307
NI437   NI        0.128047    0.513470    0.147040     0.004307
NI438   NI        0.157990    0.516936    0.181069     0.004307
PD439   PD        0.198511    0.482972    0.182451     0.005394
NI440   NI        0.194741    0.517300    0.148220     0.004307
PD441   PD        0.231506    0.482555    0.147777     0.005394
PD442   PD        0.231623    0.516880    0.180850     0.005394
PD443   PD        0.266476    0.482563    0.180406     0.005394
PD444   PD        0.267398    0.517269    0.148477     0.005394
PD445   PD        0.305424    0.482207    0.148217     0.005394
PD446   PD        0.303434    0.517481    0.180010     0.005394
PD447   PD        0.338181    0.482006    0.178529     0.005394
PD448   PD        0.343103    0.517388    0.147243     0.005394
PD449   PD        0.376850    0.482077    0.145697     0.005394
PD450   PD        0.376641    0.516294    0.181598     0.005394
PD451   PD        0.446464    0.479674    0.152840     0.005394
PD452   PD        0.413706    0.514582    0.144491     0.005394
PD453   PD        0.452781    0.481960    0.143304     0.005394
PD454   PD        0.451420    0.516409    0.179955     0.005394
PD455   PD        0.487383    0.480910    0.177648     0.005394
PD456   PD        0.487594    0.517254    0.143784     0.005394
PD457   PD        0.526631    0.482972    0.144699     0.005394
PD458   PD        0.522927    0.515420    0.179936     0.005394
PD459   PD        0.560632    0.482337    0.178687     0.005394
PD460   PD        0.598361    0.549924    0.143553     0.005394
PD461   PD        0.597757    0.481589    0.145752     0.005394
PD462   PD        0.597846    0.516629    0.178762     0.005394
PD463   PD        0.633744    0.482330    0.179202     0.005394
PD464   PD        0.633461    0.515830    0.145850     0.005394
NI465   NI        0.682451    0.510764    0.150159     0.004307
PD466   PD        0.670647    0.515680    0.179291     0.005394
PD467   PD        0.708245    0.482531    0.178827     0.005394
NI468   NI        0.709440    0.517996    0.146924     0.004307
NI469   NI        0.746236    0.483722    0.145140     0.004307
NI470   NI        0.746692    0.517225    0.178937     0.004307
NI471   NI        0.784238    0.482395    0.180034     0.004307
NI472   NI        0.127603    0.553205    0.182233     0.004307
NI473   NI        0.158094    0.550610    0.147368     0.004307
NI474   NI        0.127665    0.588114    0.146749     0.004307
NI475   NI        0.194762    0.551761    0.180815     0.004307
NI476   NI        0.191875    0.584181    0.146307     0.004307
NI477   NI        0.228718    0.550175    0.146477     0.004307
NI478   NI        0.228890    0.584930    0.180044     0.004307
PD479   PD        0.265982    0.550354    0.179809     0.005394
NI480   NI        0.265589    0.585555    0.145875     0.004307
PD481   PD        0.303607    0.551133    0.146570     0.005394
PD482   PD        0.302372    0.584209    0.179311     0.005394
PD483   PD        0.342440    0.551164    0.180509     0.005394
NI484   NI        0.339530    0.585032    0.145976     0.004307
PD485   PD        0.338909    0.548835    0.110587     0.005394
PD486   PD        0.376090    0.586158    0.180148     0.005394
PD487   PD        0.414565    0.551633    0.179583     0.005394
PD488   PD        0.414483    0.584876    0.145308     0.005394
PD489   PD        0.450634    0.551862    0.145850     0.005394
PD490   PD        0.450240    0.585785    0.180080     0.005394
NI491   NI        0.514711    0.560031    0.191620     0.004307
PD492   PD        0.487031    0.585966    0.146510     0.005394
PD493   PD        0.524048    0.550733    0.144687     0.005394
PD494   PD        0.525234    0.585989    0.179863     0.005394
PD495   PD        0.560732    0.550582    0.177895     0.005394
PD496   PD        0.562422    0.585137    0.144552     0.005394
NI497   NI        0.628615    0.550084    0.119820     0.004307
PD498   PD        0.597084    0.584665    0.177608     0.005394
NI499   NI        0.652823    0.557579    0.211025     0.004307
NI500   NI        0.637393    0.585465    0.144711     0.004307
NI501   NI        0.672559    0.552189    0.144670     0.004307
NI502   NI        0.672810    0.587364    0.178802     0.004307
NI503   NI        0.710511    0.551295    0.179405     0.004307
NI504   NI        0.709330    0.585524    0.146062     0.004307
NI505   NI        0.776665    0.574030    0.144153     0.004307
NI506   NI        0.745743    0.587609    0.179320     0.004307
NI507   NI        0.783643    0.586098    0.144929     0.004307
NI508   NI        0.193617    0.619586    0.179164     0.004307
NI509   NI        0.229181    0.619694    0.146004     0.004307
NI510   NI        0.231730    0.652239    0.179646     0.004307
PD511   PD        0.265564    0.617601    0.178747     0.005394
NI512   NI        0.267069    0.653566    0.145903     0.004307
NI513   NI        0.301870    0.618026    0.146680     0.004307
NI514   NI        0.303351    0.652152    0.179938     0.004307
PD515   PD        0.339520    0.617726    0.180408     0.005394
NI516   NI        0.338920    0.652896    0.146818     0.004307
PD517   PD        0.375494    0.619245    0.144226     0.005394
PD518   PD        0.377830    0.652394    0.179815     0.005394
PD519   PD        0.413127    0.618860    0.178114     0.005394
NI520   NI        0.413638    0.654465    0.145183     0.004307
PD521   PD        0.449290    0.620095    0.145830     0.005394
PD522   PD        0.449481    0.653590    0.179272     0.005394
PD523   PD        0.486358    0.619731    0.180129     0.005394
NI524   NI        0.486108    0.652092    0.144512     0.004307
NI525   NI        0.527001    0.616738    0.151904     0.004307
PD526   PD        0.522922    0.654758    0.178311     0.005394
NI527   NI        0.586685    0.624214    0.194113     0.004307
NI528   NI        0.561836    0.688522    0.110161     0.004307
NI529   NI        0.598784    0.621152    0.145150     0.004307
NI530   NI        0.598645    0.654997    0.180617     0.004307
NI531   NI        0.634942    0.618450    0.178525     0.004307
NI532   NI        0.673241    0.654460    0.110040     0.004307
NI533   NI        0.674525    0.620122    0.146260     0.004307
NI534   NI        0.630523    0.679004    0.177774     0.004307
NI535   NI        0.708416    0.618900    0.179543     0.004307
NI536   NI        0.268523    0.688180    0.179141     0.004307
NI537   NI        0.304318    0.687933    0.145666     0.004307
NI538   NI        0.301793    0.723023    0.179612     0.004307
NI539   NI        0.340510    0.688202    0.178303     0.004307
NI540   NI        0.339003    0.723397    0.144986     0.004307
NI541   NI        0.377570    0.722624    0.180048     0.004307
NI542   NI        0.412438    0.687410    0.178951     0.004307
NI543   NI        0.413389    0.721223    0.145075     0.004307
NI544   NI        0.449928    0.687478    0.146307     0.004307
NI545   NI        0.450967    0.722962    0.177986     0.004307
PD546   PD        0.487613    0.687508    0.178014     0.005394
NI547   NI        0.488519    0.722156    0.144652     0.004307
NI548   NI        0.523640    0.688253    0.145153     0.004307
NI549   NI        0.523437    0.723070    0.181415     0.004307
NI550   NI        0.559999    0.688347    0.181819     0.004307
NI551   NI        0.604524    0.702013    0.167264     0.004307
NI552   NI        0.598502    0.757589    0.143511     0.004307
NI553   NI        0.635666    0.688855    0.179219     0.004307
NI554   NI        0.423697    0.721165    0.168066     0.004307
NI555   NI        0.485753    0.757011    0.177798     0.004307
NI556   NI        0.380082    0.035989    0.243603     0.004307
NI557   NI        0.444600    0.061677    0.263500     0.004307
NI558   NI        0.527539    0.036638    0.244011     0.004307
NI559   NI        0.225254    0.122180    0.240521     0.004307
NI560   NI        0.266926    0.037744    0.210271     0.004307
NI561   NI        0.266119    0.109239    0.211593     0.004307
NI562   NI        0.305298    0.104311    0.244196     0.004307
NI563   NI        0.343700    0.070686    0.243972     0.004307
NI564   NI        0.344060    0.104427    0.209633     0.004307
NI565   NI        0.379117    0.070190    0.209280     0.004307
NI566   NI        0.379019    0.104887    0.243405     0.004307
NI567   NI        0.417411    0.069729    0.243235     0.004307
NI568   NI        0.418173    0.103230    0.208765     0.004307
NI569   NI        0.454592    0.070422    0.208417     0.004307
PD570   PD        0.455605    0.103537    0.242919     0.005394
NI571   NI        0.491486    0.068592    0.242743     0.004307
NI572   NI        0.492435    0.104520    0.209698     0.004307
NI573   NI        0.525301    0.068909    0.210759     0.004307
NI574   NI        0.529628    0.102792    0.242600     0.004307
NI575   NI        0.536520    0.060187    0.252718     0.004307
NI576   NI        0.564682    0.103488    0.208607     0.004307
NI577   NI        0.603767    0.102369    0.243673     0.004307
NI578   NI        0.640770    0.071158    0.245023     0.004307
NI579   NI        0.635481    0.104823    0.209167     0.004307
NI580   NI        0.675836    0.106549    0.246035     0.004307
NI581   NI        0.163312    0.180688    0.247815     0.004307
NI582   NI        0.166803    0.134867    0.229350     0.004307
NI583   NI        0.194117    0.139496    0.178198     0.004307
NI584   NI        0.232713    0.143020    0.210334     0.004307
NI585   NI        0.232692    0.175582    0.243781     0.004307
NI586   NI        0.269616    0.139890    0.245225     0.004307
NI587   NI        0.268546    0.145692    0.182765     0.004307
NI588   NI        0.305999    0.138624    0.209280     0.004307
PD589   PD        0.306025    0.171006    0.244235     0.005394
PD590   PD        0.343815    0.137565    0.242805     0.005394
PD591   PD        0.344010    0.171453    0.209883     0.005394
PD592   PD        0.381005    0.137231    0.207875     0.005394
PD593   PD        0.381747    0.171332    0.243246     0.005394
PD594   PD        0.417994    0.138442    0.242787     0.005394
PD595   PD        0.416827    0.172962    0.208593     0.005394
NI596   NI        0.455304    0.139124    0.209273     0.004307
PD597   PD        0.454602    0.173972    0.244403     0.005394
NI598   NI        0.455736    0.145922    0.266058     0.004307
PD599   PD        0.492165    0.172448    0.209094     0.005394
NI600   NI        0.528903    0.138178    0.208413     0.004307
PD601   PD        0.528633    0.172744    0.243536     0.005394
PD602   PD        0.565321    0.138177    0.244946     0.005394
PD603   PD        0.563020    0.172534    0.211006     0.005394
NI604   NI        0.598572    0.136957    0.211183     0.004307
PD605   PD        0.601858    0.170639    0.243147     0.005394
NI606   NI        0.639053    0.137450    0.244572     0.004307
NI607   NI        0.637787    0.174954    0.211986     0.004307
NI608   NI        0.676545    0.137578    0.209913     0.004307
NI609   NI        0.685590    0.162099    0.270926     0.004307
NI610   NI        0.684699    0.121506    0.248240     0.004307
NI611   NI        0.711524    0.176683    0.210655     0.004307
NI612   NI        0.751322    0.174006    0.244642     0.004307
NI613   NI        0.095595    0.249603    0.248482     0.004307
NI614   NI        0.128481    0.214070    0.247298     0.004307
NI615   NI        0.129286    0.249897    0.214975     0.004307
NI616   NI        0.161824    0.211759    0.212600     0.004307
NI617   NI        0.149708    0.276108    0.251790     0.004307
NI618   NI        0.197851    0.210618    0.245180     0.004307
NI619   NI        0.194978    0.244380    0.210076     0.004307
NI620   NI        0.211761    0.202101    0.203847     0.004307
NI621   NI        0.262980    0.242563    0.234487     0.004307
PD622   PD        0.269172    0.208216    0.245904     0.005394
NI623   NI        0.266364    0.263578    0.194284     0.004307
NI624   NI        0.307520    0.206627    0.210250     0.004307
PD625   PD        0.307594    0.240426    0.245511     0.005394
PD626   PD        0.342446    0.207107    0.243961     0.005394
PD627   PD        0.343154    0.239594    0.211252     0.005394
NI628   NI        0.385420    0.217180    0.209222     0.004307
PD629   PD        0.378005    0.241344    0.245194     0.005394
NI630   NI        0.414092    0.183267    0.215908     0.004307
NI631   NI        0.398568    0.237349    0.232811     0.004307
PD632   PD        0.456034    0.205863    0.208374     0.005394
PD633   PD        0.452757    0.240233    0.243068     0.005394
PD634   PD        0.492668    0.206222    0.242905     0.005394
PD635   PD        0.493377    0.241441    0.209473     0.005394
PD636   PD        0.528687    0.207249    0.212439     0.005394
PD637   PD        0.528204    0.240979    0.242878     0.005394
PD638   PD        0.566273    0.205113    0.243926     0.005394
PD639   PD        0.567067    0.240494    0.209545     0.005394
PD640   PD        0.600496    0.208611    0.211122     0.005394
PD641   PD        0.603236    0.241464    0.243905     0.005394
PD642   PD        0.637175    0.206471    0.246497     0.005394
NI643   NI        0.589763    0.241637    0.252155     0.004307
NI644   NI        0.674974    0.208572    0.212075     0.004307
PD645   PD        0.673194    0.239988    0.245986     0.005394
NI646   NI        0.711997    0.209249    0.243622     0.004307
NI647   NI        0.689830    0.254148    0.204776     0.004307
NI648   NI        0.749527    0.210338    0.212261     0.004307
NI649   NI        0.744737    0.244691    0.245725     0.004307
NI650   NI        0.756413    0.202629    0.242317     0.004307
NI651   NI        0.830660    0.243086    0.212957     0.004307
NI652   NI        0.813132    0.246817    0.246630     0.004307
NI653   NI        0.060424    0.308329    0.233133     0.004307
NI654   NI        0.130187    0.280954    0.249943     0.004307
NI655   NI        0.132605    0.313594    0.215686     0.004307
NI656   NI        0.162524    0.278859    0.210603     0.004307
NI657   NI        0.122526    0.320883    0.219563     0.004307
NI658   NI        0.199805    0.281540    0.252075     0.004307
NI659   NI        0.179221    0.317860    0.188296     0.004307
PD660   PD        0.233927    0.277477    0.213996     0.005394
PD661   PD        0.236890    0.314216    0.248230     0.005394
NI662   NI        0.265260    0.289218    0.243823     0.004307
NI663   NI        0.263235    0.316022    0.219656     0.004307
NI664   NI        0.302394    0.312872    0.188401     0.004307
PD665   PD        0.308452    0.310598    0.246393     0.005394
PD666   PD        0.342359    0.274951    0.245497     0.005394
PD667   PD        0.344411    0.316325    0.212000     0.005394
PD668   PD        0.377485    0.274849    0.213102     0.005394
PD669   PD        0.379311    0.308861    0.246717     0.005394
PD670   PD        0.415893    0.275910    0.247291     0.005394
PD671   PD        0.384176    0.310132    0.186567     0.005394
PD672   PD        0.482637    0.284951    0.182621     0.005394
PD673   PD        0.451080    0.310933    0.246608     0.005394
PD674   PD        0.463465    0.254826    0.252851     0.005394
PD675   PD        0.520859    0.313709    0.180928     0.005394
PD676   PD        0.526808    0.276122    0.209131     0.005394
PD677   PD        0.529995    0.311820    0.247323     0.005394
PD678   PD        0.561513    0.276843    0.247550     0.005394
PD679   PD        0.563660    0.310017    0.211418     0.005394
PD680   PD        0.601450    0.275550    0.209359     0.005394
PD681   PD        0.600135    0.310909    0.244347     0.005394
PD682   PD        0.636597    0.276638    0.246721     0.005394
PD683   PD        0.638111    0.311033    0.212120     0.005394
PD684   PD        0.676247    0.277554    0.210674     0.005394
PD685   PD        0.676087    0.309185    0.244781     0.005394
PD686   PD        0.709274    0.277157    0.246219     0.005394
NI687   NI        0.712983    0.309860    0.208826     0.004307
NI688   NI        0.734988    0.269273    0.204144     0.004307
NI689   NI        0.726438    0.320434    0.240980     0.004307
NI690   NI        0.743919    0.282989    0.214967     0.004307
NI691   NI        0.784316    0.311747    0.210876     0.004307
NI692   NI        0.819979    0.314989    0.248495     0.004307
NI693   NI        0.050498    0.352226    0.249725     0.004307
NI694   NI        0.090644    0.308101    0.182619     0.004307
NI695   NI        0.087838    0.383984    0.249105     0.004307
NI696   NI        0.125608    0.350418    0.251781     0.004307
NI697   NI        0.125777    0.378587    0.219266     0.004307
NI698   NI        0.163173    0.348681    0.216949     0.004307
NI699   NI        0.155849    0.386447    0.257662     0.004307
PD700   PD        0.200588    0.346957    0.248542     0.005394
NI701   NI        0.198597    0.406054    0.187034     0.004307
NI702   NI        0.210777    0.348171    0.201971     0.004307
NI703   NI        0.211049    0.388380    0.229459     0.004307
PD704   PD        0.272516    0.346607    0.247584     0.005394
PD705   PD        0.270901    0.380803    0.213086     0.005394
PD706   PD        0.303943    0.344583    0.213554     0.005394
PD707   PD        0.303028    0.377995    0.247209     0.005394
PD708   PD        0.341098    0.344582    0.247310     0.005394
PD709   PD        0.341317    0.378738    0.213656     0.005394
PD710   PD        0.375936    0.345738    0.215405     0.005394
PD711   PD        0.377925    0.379097    0.248014     0.005394
PD712   PD        0.416214    0.345986    0.244500     0.005394
PD713   PD        0.416094    0.379927    0.213103     0.005394
PD714   PD        0.454221    0.346965    0.209878     0.005394
PD715   PD        0.453653    0.379562    0.246656     0.005394
PD716   PD        0.489510    0.343787    0.247349     0.005394
PD717   PD        0.489528    0.378068    0.213447     0.005394
PD718   PD        0.526660    0.344919    0.212854     0.005394
PD719   PD        0.526961    0.379241    0.247432     0.005394
PD720   PD        0.563044    0.343911    0.245198     0.005394
PD721   PD        0.562808    0.379344    0.212977     0.005394
PD722   PD        0.600654    0.345184    0.213024     0.005394
PD723   PD        0.597692    0.378756    0.247714     0.005394
PD724   PD        0.637341    0.345521    0.245578     0.005394
PD725   PD        0.636643    0.379237    0.212048     0.005394
PD726   PD        0.675284    0.346585    0.211767     0.005394
PD727   PD        0.673307    0.379463    0.248078     0.005394
NI728   NI        0.709163    0.314510    0.215443     0.004307
PD729   PD        0.711609    0.380994    0.213685     0.005394
PD730   PD        0.747860    0.346797    0.213051     0.005394
PD731   PD        0.747157    0.380763    0.247802     0.005394
NI732   NI        0.783701    0.347638    0.246459     0.004307
NI733   NI        0.784825    0.381150    0.211922     0.004307
NI734   NI        0.820284    0.346577    0.212753     0.004307
NI735   NI        0.821692    0.380305    0.247252     0.004307
NI736   NI        0.895337    0.380891    0.248373     0.004307
NI737   NI        0.020110    0.386923    0.251685     0.004307
NI738   NI        0.100665    0.415685    0.201261     0.004307
NI739   NI        0.112067    0.437094    0.274608     0.004307
NI740   NI        0.125357    0.414000    0.250757     0.004307
NI741   NI        0.127909    0.449580    0.213331     0.004307
NI742   NI        0.160923    0.413630    0.218183     0.004307
PD743   PD        0.159722    0.449688    0.248798     0.005394
PD744   PD        0.198158    0.415049    0.249947     0.005394
PD745   PD        0.195423    0.446623    0.214971     0.005394
PD746   PD        0.233222    0.414851    0.214999     0.005394
PD747   PD        0.231696    0.449651    0.248554     0.005394
PD748   PD        0.269718    0.413581    0.250043     0.005394
NI749   NI        0.239397    0.474600    0.217071     0.004307
PD750   PD        0.304291    0.413758    0.215887     0.005394
PD751   PD        0.306362    0.447979    0.251821     0.005394
PD752   PD        0.342868    0.414951    0.251237     0.005394
PD753   PD        0.343152    0.448906    0.216293     0.005394
PD754   PD        0.378479    0.413643    0.214505     0.005394
PD755   PD        0.377461    0.446430    0.249146     0.005394
PD756   PD        0.417050    0.412422    0.247404     0.005394
PD757   PD        0.414429    0.447165    0.215987     0.005394
PD758   PD        0.452563    0.412770    0.214265     0.005394
PD759   PD        0.450823    0.447116    0.248295     0.005394
PD760   PD        0.489712    0.413898    0.248844     0.005394
PD761   PD        0.487711    0.448138    0.213445     0.005394
PD762   PD        0.525579    0.413516    0.214448     0.005394
PD763   PD        0.524367    0.446520    0.245953     0.005394
PD764   PD        0.561225    0.413546    0.247906     0.005394
PD765   PD        0.560733    0.446485    0.212448     0.005394
PD766   PD        0.599669    0.413236    0.212150     0.005394
PD767   PD        0.598835    0.447248    0.248222     0.005394
PD768   PD        0.633246    0.413487    0.247644     0.005394
PD769   PD        0.633992    0.447768    0.213432     0.005394
PD770   PD        0.673345    0.412788    0.212563     0.005394
PD771   PD        0.673106    0.447762    0.248547     0.005394
PD772   PD        0.711231    0.415344    0.246051     0.005394
PD773   PD        0.708433    0.448365    0.213512     0.005394
NI774   NI        0.745850    0.414680    0.213185     0.004307
PD775   PD        0.747674    0.449170    0.248944     0.005394
NI776   NI        0.744962    0.427749    0.233202     0.004307
NI777   NI        0.778616    0.454645    0.216141     0.004307
NI778   NI        0.820634    0.414976    0.214922     0.004307
NI779   NI        0.819516    0.449304    0.248866     0.004307
NI780   NI        0.855899    0.414937    0.247822     0.004307
NI781   NI        0.054224    0.477442    0.246029     0.004307
NI782   NI        0.091057    0.478906    0.219721     0.004307
NI783   NI        0.091190    0.517113    0.248826     0.004307
NI784   NI        0.125222    0.483006    0.250663     0.004307
NI785   NI        0.123461    0.518803    0.217449     0.004307
NI786   NI        0.157671    0.482691    0.214042     0.004307
PD787   PD        0.159774    0.515650    0.248631     0.005394
PD788   PD        0.194506    0.481018    0.250951     0.005394
NI789   NI        0.190781    0.514705    0.215077     0.004307
PD790   PD        0.231520    0.483088    0.216499     0.005394
NI791   NI        0.201558    0.519250    0.215429     0.004307
PD792   PD        0.271186    0.481825    0.250901     0.005394
PD793   PD        0.266822    0.514981    0.216612     0.005394
PD794   PD        0.306229    0.483233    0.216674     0.005394
PD795   PD        0.305765    0.514497    0.251455     0.005394
PD796   PD        0.342883    0.481244    0.250540     0.005394
PD797   PD        0.339172    0.515859    0.214997     0.005394
PD798   PD        0.413905    0.517707    0.214969     0.005394
PD799   PD        0.376879    0.517877    0.248363     0.005394
PD800   PD        0.378054    0.480827    0.213148     0.005394
PD801   PD        0.445072    0.544153    0.218198     0.005394
PD802   PD        0.451471    0.482392    0.212337     0.005394
PD803   PD        0.450075    0.514276    0.248153     0.005394
PD804   PD        0.486844    0.481795    0.246715     0.005394
PD805   PD        0.486986    0.517185    0.212311     0.005394
PD806   PD        0.524633    0.481978    0.214839     0.005394
PD807   PD        0.523104    0.516135    0.248251     0.005394
PD808   PD        0.559392    0.480914    0.246671     0.005394
PD809   PD        0.561128    0.517011    0.212859     0.005394
PD810   PD        0.599480    0.482109    0.214642     0.005394
PD811   PD        0.597417    0.516227    0.247908     0.005394
PD812   PD        0.635411    0.482711    0.246842     0.005394
PD813   PD        0.634764    0.516018    0.213974     0.005394
PD814   PD        0.669816    0.481823    0.212897     0.005394
PD815   PD        0.671700    0.515939    0.247280     0.005394
NI816   NI        0.712987    0.507415    0.282256     0.004307
PD817   PD        0.708001    0.516666    0.212158     0.005394
NI818   NI        0.784564    0.448544    0.213108     0.004307
NI819   NI        0.737366    0.529537    0.250820     0.004307
NI820   NI        0.783876    0.482420    0.247507     0.004307
NI821   NI        0.818803    0.520485    0.179773     0.004307
NI822   NI        0.818423    0.482768    0.213208     0.004307
NI823   NI        0.820776    0.519569    0.249259     0.004307
NI824   NI        0.849241    0.485993    0.245592     0.004307
NI825   NI        0.083920    0.583778    0.249390     0.004307
NI826   NI        0.122885    0.554077    0.248691     0.004307
NI827   NI        0.120265    0.586045    0.214601     0.004307
NI828   NI        0.150237    0.540461    0.208656     0.004307
NI829   NI        0.156892    0.584801    0.248682     0.004307
PD830   PD        0.193155    0.550174    0.249095     0.005394
NI831   NI        0.197819    0.587521    0.216446     0.004307
PD832   PD        0.228601    0.550415    0.214647     0.005394
PD833   PD        0.231603    0.585922    0.249231     0.005394
NI834   NI        0.298116    0.548116    0.220663     0.004307
PD835   PD        0.266634    0.585263    0.213621     0.005394
PD836   PD        0.304206    0.550168    0.211808     0.005394
PD837   PD        0.301185    0.584068    0.248649     0.005394
PD838   PD        0.338768    0.552094    0.247872     0.005394
PD839   PD        0.339039    0.584729    0.213510     0.005394
PD840   PD        0.377735    0.549284    0.214949     0.005394
PD841   PD        0.376235    0.585712    0.247457     0.005394
PD842   PD        0.413045    0.551673    0.248639     0.005394
PD843   PD        0.412832    0.585243    0.213558     0.005394
PD844   PD        0.449477    0.552337    0.213481     0.005394
PD845   PD        0.449133    0.584893    0.246175     0.005394
PD846   PD        0.513344    0.564083    0.237249     0.005394
PD847   PD        0.485887    0.585727    0.213739     0.005394
PD848   PD        0.523013    0.549293    0.212315     0.005394
PD849   PD        0.523813    0.584502    0.249155     0.005394
PD850   PD        0.559398    0.550699    0.247318     0.005394
PD851   PD        0.557184    0.584117    0.214918     0.005394
PD852   PD        0.595690    0.549996    0.212937     0.005394
PD853   PD        0.597351    0.583329    0.247849     0.005394
PD854   PD        0.666985    0.551199    0.281280     0.005394
NI855   NI        0.664461    0.594597    0.203164     0.004307
PD856   PD        0.672620    0.551646    0.213858     0.005394
PD857   PD        0.670960    0.585771    0.246448     0.005394
PD858   PD        0.707507    0.550014    0.248131     0.005394
NI859   NI        0.706268    0.573890    0.193939     0.004307
NI860   NI        0.743859    0.552934    0.213697     0.004307
NI861   NI        0.743026    0.586094    0.250782     0.004307
NI862   NI        0.783915    0.551540    0.247965     0.004307
NI863   NI        0.780251    0.585653    0.219249     0.004307
NI864   NI        0.826131    0.561999    0.230069     0.004307
NI865   NI        0.118756    0.619612    0.248406     0.004307
NI866   NI        0.156334    0.619039    0.216412     0.004307
NI867   NI        0.155720    0.653164    0.249351     0.004307
NI868   NI        0.191249    0.619092    0.248407     0.004307
NI869   NI        0.190763    0.652564    0.212901     0.004307
NI870   NI        0.230305    0.620033    0.213062     0.004307
NI871   NI        0.227608    0.652844    0.248415     0.004307
PD872   PD        0.264828    0.619112    0.247957     0.005394
NI873   NI        0.266362    0.651790    0.212946     0.004307
PD874   PD        0.301878    0.618020    0.213290     0.005394
PD875   PD        0.301086    0.654550    0.246764     0.005394
PD876   PD        0.375314    0.653279    0.246134     0.005394
NI877   NI        0.334237    0.676005    0.243073     0.004307
PD878   PD        0.377807    0.618943    0.213395     0.005394
NI879   NI        0.404123    0.663534    0.238884     0.004307
PD880   PD        0.413806    0.619220    0.247496     0.005394
PD881   PD        0.413742    0.654902    0.212809     0.005394
PD882   PD        0.450235    0.620690    0.212537     0.005394
PD883   PD        0.449590    0.654118    0.246780     0.005394
NI884   NI        0.507837    0.642295    0.241712     0.004307
PD885   PD        0.486654    0.653775    0.213666     0.005394
PD886   PD        0.524795    0.620647    0.213550     0.005394
PD887   PD        0.522115    0.654426    0.246735     0.005394
NI888   NI        0.594071    0.592374    0.256961     0.004307
PD889   PD        0.560954    0.654241    0.213365     0.005394
NI890   NI        0.588409    0.631553    0.236911     0.004307
PD891   PD        0.597172    0.655485    0.247888     0.005394
PD892   PD        0.633589    0.621321    0.247482     0.005394
PD893   PD        0.633466    0.654194    0.212302     0.005394
NI894   NI        0.670536    0.619535    0.213079     0.004307
NI895   NI        0.698771    0.623864    0.249472     0.004307
NI896   NI        0.707547    0.619221    0.247184     0.004307
NI897   NI        0.708316    0.654341    0.214494     0.004307
NI898   NI        0.745855    0.619288    0.216200     0.004307
NI899   NI        0.775623    0.664676    0.245453     0.004307
NI900   NI        0.782288    0.620299    0.249266     0.004307
NI901   NI        0.192944    0.688561    0.246954     0.004307
NI902   NI        0.230299    0.686370    0.212072     0.004307
NI903   NI        0.233707    0.756352    0.218161     0.004307
NI904   NI        0.226639    0.722086    0.246181     0.004307
NI905   NI        0.265466    0.723573    0.211494     0.004307
NI906   NI        0.303551    0.688216    0.212994     0.004307
NI907   NI        0.293975    0.702450    0.241979     0.004307
PD908   PD        0.339157    0.688410    0.245705     0.005394
NI909   NI        0.340642    0.722407    0.212801     0.004307
PD910   PD        0.376403    0.689412    0.213011     0.005394
NI911   NI        0.377586    0.722636    0.246664     0.004307
PD912   PD        0.413056    0.687988    0.246566     0.005394
NI913   NI        0.414183    0.723550    0.213761     0.004307
PD914   PD        0.450990    0.689755    0.213136     0.005394
PD915   PD        0.449734    0.721345    0.246726     0.005394
PD916   PD        0.487449    0.687426    0.247515     0.005394
NI917   NI        0.486253    0.721598    0.212032     0.004307
PD918   PD        0.523422    0.687899    0.214150     0.005394
PD919   PD        0.523638    0.722136    0.246040     0.005394
PD920   PD        0.562269    0.687678    0.246792     0.005394
NI921   NI        0.561676    0.722340    0.214154     0.004307
NI922   NI        0.598039    0.688793    0.211787     0.004307
NI923   NI        0.599327    0.722044    0.247234     0.004307
NI924   NI        0.635548    0.688279    0.247169     0.004307
NI925   NI        0.625131    0.684159    0.246874     0.004307
NI926   NI        0.659438    0.650568    0.233218     0.004307
NI927   NI        0.670567    0.722803    0.247049     0.004307
NI928   NI        0.707672    0.688359    0.248336     0.004307
NI929   NI        0.292579    0.780713    0.245794     0.004307
NI930   NI        0.326049    0.771924    0.275318     0.004307
NI931   NI        0.375364    0.756498    0.211539     0.004307
NI932   NI        0.377688    0.792282    0.246927     0.004307
NI933   NI        0.412974    0.758165    0.244950     0.004307
NI934   NI        0.450825    0.757040    0.212527     0.004307
NI935   NI        0.448611    0.791529    0.245143     0.004307
NI936   NI        0.487188    0.756637    0.247019     0.004307
NI937   NI        0.553752    0.720491    0.219980     0.004307
NI938   NI        0.522430    0.792160    0.245652     0.004307
NI939   NI        0.560728    0.757324    0.247194     0.004307
NI940   NI        0.636202    0.755980    0.247525     0.004307
NI941   NI        0.304262    0.003621    0.349471     0.004307
NI942   NI        0.304535    0.036089    0.312417     0.004307
NI943   NI        0.379586    0.036318    0.313249     0.004307
NI944   NI        0.381919    0.027886    0.266462     0.004307
NI945   NI        0.454685    0.034671    0.312919     0.004307
NI946   NI        0.478857    0.030303    0.266328     0.004307
NI947   NI        0.559748    0.037698    0.287406     0.004307
NI948   NI        0.565186    0.034860    0.277666     0.004307
NI949   NI        0.604079    0.037822    0.313757     0.004307
NI950   NI        0.197769    0.111974    0.278209     0.004307
NI951   NI        0.233029    0.104993    0.313415     0.004307
NI952   NI        0.269711    0.069943    0.313461     0.004307
NI953   NI        0.234920    0.136399    0.275648     0.004307
NI954   NI        0.307684    0.069369    0.279604     0.004307
PD955   PD        0.306660    0.103702    0.311939     0.005394
NI956   NI        0.342761    0.068440    0.313073     0.004307
PD957   PD        0.343712    0.102397    0.278172     0.005394
NI958   NI        0.378807    0.069991    0.276284     0.004307
PD959   PD        0.380646    0.103105    0.314113     0.005394
NI960   NI        0.379900    0.076257    0.350042     0.004307
PD961   PD        0.417641    0.102239    0.276958     0.005394
NI962   NI        0.455248    0.070312    0.277607     0.004307
PD963   PD        0.454827    0.102954    0.312243     0.005394
NI964   NI        0.490812    0.069949    0.312086     0.004307
PD965   PD        0.492578    0.102705    0.278781     0.005394
NI966   NI        0.529482    0.070539    0.278476     0.004307
PD967   PD        0.529324    0.104226    0.312781     0.005394
NI968   NI        0.566876    0.070560    0.312286     0.004307
NI969   NI        0.566614    0.103033    0.278838     0.004307
NI970   NI        0.601898    0.068999    0.277333     0.004307
PD971   PD        0.602010    0.103596    0.313687     0.005394
NI972   NI        0.638763    0.068801    0.312848     0.004307
NI973   NI        0.629613    0.141712    0.307247     0.004307
NI974   NI        0.674729    0.070098    0.279959     0.004307
NI975   NI        0.710908    0.104178    0.278943     0.004307
NI976   NI        0.125659    0.179656    0.280441     0.004307
NI977   NI        0.159226    0.144343    0.278580     0.004307
NI978   NI        0.127111    0.147633    0.315024     0.004307
NI979   NI        0.196796    0.141066    0.312798     0.004307
NI980   NI        0.197931    0.178340    0.280559     0.004307
NI981   NI        0.233496    0.144335    0.279463     0.004307
PD982   PD        0.196828    0.211773    0.315605     0.005394
NI983   NI        0.270247    0.138717    0.311892     0.004307
PD984   PD        0.269706    0.173959    0.278069     0.005394
PD985   PD        0.307294    0.138456    0.277322     0.005394
NI986   NI        0.289779    0.181090    0.291420     0.004307
PD987   PD        0.344109    0.137755    0.312662     0.005394
PD988   PD        0.345094    0.171029    0.277443     0.005394
PD989   PD        0.381400    0.136987    0.276764     0.005394
PD990   PD        0.381804    0.169815    0.312475     0.005394
PD991   PD        0.418705    0.136442    0.312941     0.005394
PD992   PD        0.417732    0.171121    0.277544     0.005394
PD993   PD        0.454501    0.136555    0.277108     0.005394
PD994   PD        0.455248    0.171861    0.313326     0.005394
PD995   PD        0.490989    0.135773    0.311623     0.005394
PD996   PD        0.493200    0.171783    0.278417     0.005394
PD997   PD        0.528878    0.137313    0.277537     0.005394
NI998   NI        0.537445    0.193230    0.295206     0.004307
PD999   PD        0.564308    0.136981    0.311387     0.005394
PD1000   PD        0.566060    0.173048    0.278666     0.005394
PD1001   PD        0.602582    0.135718    0.277612     0.005394
NI1002   NI        0.548816    0.160146    0.308755     0.004307
NI1003   NI        0.636733    0.139620    0.313184     0.004307
PD1004   PD        0.636930    0.173032    0.278297     0.005394
NI1005   NI        0.675153    0.137729    0.279212     0.004307
PD1006   PD        0.673329    0.173067    0.314013     0.005394
NI1007   NI        0.673270    0.140694    0.347937     0.004307
NI1008   NI        0.713420    0.173028    0.280067     0.004307
NI1009   NI        0.748969    0.139112    0.278021     0.004307
NI1010   NI        0.782076    0.176318    0.278294     0.004307
NI1011   NI        0.831046    0.172346    0.275881     0.004307
NI1012   NI        0.094358    0.245126    0.318546     0.004307
NI1013   NI        0.124239    0.210841    0.316527     0.004307
NI1014   NI        0.126466    0.249768    0.283340     0.004307
NI1015   NI        0.159643    0.213121    0.279328     0.004307
NI1016   NI        0.162648    0.246485    0.317913     0.004307
NI1017   NI        0.162132    0.179885    0.314935     0.004307
NI1018   NI        0.197883    0.246692    0.283976     0.004307
NI1019   NI        0.233524    0.210172    0.278143     0.004307
PD1020   PD        0.234916    0.243407    0.312490     0.005394
PD1021   PD        0.269545    0.209029    0.310483     0.005394
PD1022   PD        0.269539    0.241606    0.280999     0.005394
PD1023   PD        0.307826    0.205457    0.277272     0.005394
PD1024   PD        0.281459    0.236399    0.328196     0.005394
PD1025   PD        0.342397    0.207192    0.311884     0.005394
PD1026   PD        0.343766    0.240164    0.276321     0.005394
PD1027   PD        0.379600    0.206238    0.279923     0.005394
PD1028   PD        0.379250    0.240949    0.312597     0.005394
PD1029   PD        0.418044    0.206581    0.312242     0.005394
PD1030   PD        0.418148    0.241083    0.279005     0.005394
PD1031   PD        0.455702    0.205539    0.277752     0.005394
PD1032   PD        0.454052    0.238799    0.312845     0.005394
PD1033   PD        0.492702    0.205259    0.312192     0.005394
PD1034   PD        0.489716    0.240971    0.279976     0.005394
PD1035   PD        0.527503    0.207049    0.276769     0.005394
PD1036   PD        0.528169    0.239808    0.312488     0.005394
PD1037   PD        0.565238    0.205802    0.313843     0.005394
PD1038   PD        0.565901    0.241294    0.277572     0.005394
PD1039   PD        0.602848    0.207137    0.279393     0.005394
PD1040   PD        0.602301    0.240360    0.312094     0.005394
PD1041   PD        0.639250    0.206493    0.313536     0.005394
PD1042   PD        0.638671    0.241359    0.278202     0.005394
NI1043   NI        0.672752    0.210992    0.278790     0.004307
PD1044   PD        0.675895    0.241427    0.314547     0.005394
NI1045   NI        0.705483    0.182080    0.281258     0.004307
PD1046   PD        0.710786    0.242829    0.279411     0.005394
NI1047   NI        0.746985    0.210506    0.278300     0.004307
PD1048   PD        0.747721    0.241784    0.316296     0.005394
NI1049   NI        0.774211    0.240610    0.353391     0.004307
NI1050   NI        0.784488    0.242676    0.279863     0.004307
NI1051   NI        0.791569    0.255833    0.299509     0.004307
NI1052   NI        0.042732    0.276926    0.346439     0.004307
NI1053   NI        0.054126    0.317017    0.278464     0.004307
NI1054   NI        0.065823    0.292623    0.236285     0.004307
NI1055   NI        0.070132    0.310982    0.332667     0.004307
NI1056   NI        0.127958    0.280742    0.318151     0.004307
NI1057   NI        0.100218    0.312281    0.260105     0.004307
NI1058   NI        0.149787    0.288118    0.245488     0.004307
PD1059   PD        0.162303    0.315378    0.319599     0.005394
PD1060   PD        0.200057    0.281742    0.315059     0.005394
PD1061   PD        0.204472    0.315217    0.282845     0.005394
PD1062   PD        0.234894    0.278056    0.281905     0.005394
PD1063   PD        0.208371    0.309056    0.336848     0.005394
PD1064   PD        0.269053    0.275325    0.311435     0.005394
PD1065   PD        0.271394    0.311048    0.281975     0.005394
PD1066   PD        0.306676    0.274915    0.278824     0.005394
PD1067   PD        0.309477    0.309805    0.311649     0.005394
PD1068   PD        0.341957    0.275338    0.314612     0.005394
PD1069   PD        0.307639    0.344909    0.278650     0.005394
PD1070   PD        0.380314    0.276461    0.280072     0.005394
PD1071   PD        0.378109    0.309882    0.315351     0.005394
PD1072   PD        0.415652    0.275606    0.313005     0.005394
PD1073   PD        0.413678    0.311134    0.281175     0.005394
PD1074   PD        0.449367    0.304614    0.269758     0.005394
PD1075   PD        0.454029    0.309854    0.314941     0.005394
PD1076   PD        0.492264    0.273369    0.315894     0.005394
NI1077   NI        0.460243    0.300492    0.298107     0.004307
PD1078   PD        0.528973    0.274744    0.279287     0.005394
PD1079   PD        0.527008    0.310468    0.315147     0.005394
PD1080   PD        0.563941    0.275334    0.315572     0.005394
PD1081   PD        0.563967    0.309526    0.279474     0.005394
PD1082   PD        0.601624    0.274608    0.278445     0.005394
PD1083   PD        0.615239    0.310339    0.341305     0.005394
PD1084   PD        0.638684    0.276412    0.313717     0.005394
PD1085   PD        0.638366    0.312280    0.280005     0.005394
PD1086   PD        0.675106    0.276123    0.279298     0.005394
PD1087   PD        0.675735    0.312349    0.315408     0.005394
PD1088   PD        0.711319    0.277366    0.314564     0.005394
PD1089   PD        0.710752    0.310995    0.282419     0.005394
NI1090   NI        0.748844    0.276151    0.283542     0.004307
PD1091   PD        0.745351    0.313163    0.316732     0.005394
NI1092   NI        0.794642    0.281041    0.339466     0.004307
NI1093   NI        0.784589    0.313153    0.281906     0.004307
NI1094   NI        0.819674    0.280832    0.279702     0.004307
NI1095   NI        0.821961    0.313847    0.314173     0.004307
NI1096   NI        0.832699    0.271853    0.312077     0.004307
NI1097   NI        0.855408    0.313205    0.279913     0.004307
NI1098   NI        0.053697    0.348259    0.315693     0.004307
NI1099   NI        0.055661    0.380766    0.285281     0.004307
NI1100   NI        0.115037    0.380158    0.285365     0.004307
NI1101   NI        0.068533    0.378432    0.303320     0.004307
NI1102   NI        0.130696    0.351776    0.319201     0.004307
NI1103   NI        0.127872    0.381814    0.284020     0.004307
NI1104   NI        0.156216    0.331488    0.276872     0.004307
PD1105   PD        0.162350    0.347862    0.284569     0.005394
PD1106   PD        0.200205    0.350463    0.318141     0.005394
NI1107   NI        0.190927    0.356318    0.256016     0.004307
PD1108   PD        0.238059    0.347793    0.281066     0.005394
PD1109   PD        0.235489    0.382457    0.315364     0.005394
PD1110   PD        0.277641    0.374966    0.336855     0.005394
PD1111   PD        0.271259    0.378946    0.283664     0.005394
PD1112   PD        0.307692    0.344469    0.279272     0.005394
PD1113   PD        0.305459    0.380915    0.318899     0.005394
PD1114   PD        0.341025    0.343214    0.316731     0.005394
PD1115   PD        0.339720    0.379233    0.281639     0.005394
PD1116   PD        0.379634    0.346285    0.282779     0.005394
PD1117   PD        0.378123    0.380184    0.316874     0.005394
PD1118   PD        0.417194    0.343971    0.314945     0.005394
PD1119   PD        0.414170    0.377986    0.279642     0.005394
PD1120   PD        0.451726    0.345189    0.282587     0.005394
PD1121   PD        0.451610    0.378293    0.317167     0.005394
PD1122   PD        0.491360    0.345309    0.314454     0.005394
PD1123   PD        0.489982    0.379306    0.280489     0.005394
PD1124   PD        0.525694    0.345039    0.279541     0.005394
PD1125   PD        0.519915    0.415351    0.282670     0.005394
PD1126   PD        0.566748    0.377474    0.347400     0.005394
PD1127   PD        0.562546    0.379201    0.282383     0.005394
PD1128   PD        0.600508    0.344780    0.278047     0.005394
PD1129   PD        0.599207    0.379856    0.313972     0.005394
PD1130   PD        0.637905    0.344462    0.314500     0.005394
PD1131   PD        0.636914    0.379553    0.281535     0.005394
PD1132   PD        0.672269    0.345394    0.279960     0.005394
PD1133   PD        0.672452    0.380538    0.315994     0.005394
PD1134   PD        0.712045    0.345358    0.316193     0.005394
PD1135   PD        0.709730    0.379973    0.281810     0.005394
NI1136   NI        0.722139    0.352685    0.296449     0.004307
PD1137   PD        0.746795    0.378964    0.315503     0.005394
PD1138   PD        0.783738    0.345929    0.317016     0.005394
PD1139   PD        0.784003    0.380634    0.279995     0.005394
NI1140   NI        0.820126    0.348129    0.282628     0.004307
NI1141   NI        0.820186    0.378609    0.315938     0.004307
NI1142   NI        0.856974    0.347215    0.316218     0.004307
NI1143   NI        0.858525    0.381179    0.281814     0.004307
NI1144   NI        0.054472    0.419591    0.317384     0.004307
NI1145   NI        0.052749    0.450487    0.284910     0.004307
NI1146   NI        0.086965    0.416782    0.282928     0.004307
NI1147   NI        0.088769    0.449999    0.319617     0.004307
NI1148   NI        0.104034    0.403159    0.322093     0.004307
NI1149   NI        0.125455    0.452316    0.283437     0.004307
NI1150   NI        0.160572    0.418035    0.277880     0.004307
PD1151   PD        0.159492    0.447745    0.317724     0.005394
PD1152   PD        0.200611    0.416471    0.316525     0.005394
PD1153   PD        0.195492    0.449874    0.283581     0.005394
PD1154   PD        0.233396    0.417262    0.282734     0.005394
PD1155   PD        0.232408    0.450133    0.317228     0.005394
PD1156   PD        0.268248    0.412210    0.317525     0.005394
PD1157   PD        0.268604    0.449584    0.283137     0.005394
PD1158   PD        0.304821    0.413407    0.283065     0.005394
PD1159   PD        0.305914    0.446649    0.317682     0.005394
PD1160   PD        0.342795    0.412273    0.317639     0.005394
PD1161   PD        0.340745    0.447938    0.285660     0.005394
PD1162   PD        0.379440    0.413783    0.283112     0.005394
PD1163   PD        0.377326    0.448099    0.318053     0.005394
PD1164   PD        0.412931    0.412712    0.316170     0.005394
PD1165   PD        0.415008    0.447716    0.283356     0.005394
PD1166   PD        0.451085    0.412189    0.281696     0.005394
PD1167   PD        0.452169    0.447468    0.317099     0.005394
PD1168   PD        0.487146    0.411853    0.316197     0.005394
PD1169   PD        0.488145    0.447391    0.283563     0.005394
PD1170   PD        0.528869    0.412398    0.281937     0.005394
PD1171   PD        0.523376    0.445953    0.315915     0.005394
PD1172   PD        0.562677    0.413682    0.315287     0.005394
PD1173   PD        0.560493    0.447182    0.283190     0.005394
PD1174   PD        0.597199    0.412348    0.282507     0.005394
PD1175   PD        0.599791    0.447441    0.316494     0.005394
PD1176   PD        0.636054    0.413419    0.314159     0.005394
PD1177   PD        0.633071    0.445536    0.281699     0.005394
PD1178   PD        0.672154    0.412841    0.281150     0.005394
PD1179   PD        0.671946    0.447716    0.316008     0.005394
PD1180   PD        0.709759    0.414163    0.315130     0.005394
PD1181   PD        0.709845    0.446719    0.283161     0.005394
PD1182   PD        0.746875    0.413063    0.280587     0.005394
NI1183   NI        0.748822    0.451267    0.312529     0.004307
PD1184   PD        0.783716    0.412798    0.316147     0.005394
PD1185   PD        0.784380    0.448969    0.283319     0.005394
NI1186   NI        0.819131    0.414014    0.281253     0.004307
NI1187   NI        0.820469    0.448957    0.316868     0.004307
NI1188   NI        0.868246    0.435680    0.309761     0.004307
NI1189   NI        0.855851    0.449376    0.280957     0.004307
NI1190   NI        0.053304    0.484439    0.316670     0.004307
NI1191   NI        0.051966    0.487700    0.247908     0.004307
NI1192   NI        0.086447    0.486037    0.282133     0.004307
NI1193   NI        0.085552    0.516737    0.318776     0.004307
PD1194   PD        0.123653    0.483019    0.317561     0.005394
NI1195   NI        0.121859    0.514475    0.285946     0.004307
PD1196   PD        0.158790    0.483588    0.285603     0.005394
PD1197   PD        0.157410    0.516398    0.318780     0.005394
PD1198   PD        0.193302    0.481141    0.318786     0.005394
PD1199   PD        0.192419    0.516420    0.283144     0.005394
PD1200   PD        0.228637    0.483264    0.285279     0.005394
PD1201   PD        0.230734    0.517331    0.318242     0.005394
PD1202   PD        0.266895    0.485034    0.318031     0.005394
PD1203   PD        0.266187    0.516888    0.284622     0.005394
PD1204   PD        0.303191    0.482104    0.283806     0.005394
PD1205   PD        0.301286    0.515746    0.317347     0.005394
PD1206   PD        0.338787    0.484469    0.315392     0.005394
PD1207   PD        0.341145    0.515631    0.284334     0.005394
PD1208   PD        0.378285    0.481680    0.285590     0.005394
PD1209   PD        0.376080    0.516550    0.317039     0.005394
PD1210   PD        0.413803    0.482395    0.315786     0.005394
PD1211   PD        0.413931    0.517180    0.281806     0.005394
PD1212   PD        0.452702    0.482161    0.283284     0.005394
PD1213   PD        0.446811    0.518016    0.314507     0.005394
PD1214   PD        0.487883    0.481678    0.317770     0.005394
PD1215   PD        0.487034    0.516959    0.283221     0.005394
PD1216   PD        0.523172    0.481762    0.283370     0.005394
PD1217   PD        0.523315    0.515702    0.316412     0.005394
PD1218   PD        0.559506    0.481111    0.317861     0.005394
PD1219   PD        0.559803    0.514983    0.283350     0.005394
PD1220   PD        0.597192    0.480552    0.281100     0.005394
PD1221   PD        0.596655    0.515421    0.315378     0.005394
PD1222   PD        0.635064    0.481805    0.316120     0.005394
PD1223   PD        0.634716    0.516537    0.282415     0.005394
PD1224   PD        0.672203    0.482158    0.282477     0.005394
PD1225   PD        0.671210    0.516659    0.315369     0.005394
PD1226   PD        0.709126    0.481778    0.314829     0.005394
PD1227   PD        0.706638    0.516478    0.282641     0.005394
NI1228   NI        0.744931    0.486036    0.282791     0.004307
PD1229   PD        0.745996    0.518192    0.314686     0.005394
PD1230   PD        0.739294    0.515962    0.320442     0.005394
NI1231   NI        0.774027    0.528269    0.288354     0.004307
NI1232   NI        0.819734    0.481730    0.281681     0.004307
NI1233   NI        0.783934    0.508974    0.338842     0.004307
NI1234   NI        0.856292    0.481215    0.317029     0.004307
NI1235   NI        0.857988    0.515995    0.282069     0.004307
NI1236   NI        0.050633    0.551317    0.316788     0.004307
NI1237   NI        0.087663    0.548898    0.282857     0.004307
NI1238   NI        0.084538    0.584449    0.318355     0.004307
NI1239   NI        0.119279    0.550824    0.317073     0.004307
NI1240   NI        0.118635    0.583781    0.283866     0.004307
PD1241   PD        0.157261    0.549506    0.283635     0.005394
PD1242   PD        0.155424    0.584624    0.315294     0.005394
NI1243   NI        0.192601    0.539220    0.297871     0.004307
PD1244   PD        0.192516    0.584856    0.281975     0.005394
PD1245   PD        0.228777    0.551772    0.282623     0.005394
PD1246   PD        0.228300    0.587475    0.317930     0.005394
PD1247   PD        0.264985    0.553291    0.316431     0.005394
PD1248   PD        0.265102    0.586425    0.281780     0.005394
PD1249   PD        0.335349    0.524733    0.285492     0.005394
PD1250   PD        0.302292    0.584753    0.316802     0.005394
PD1251   PD        0.340309    0.551844    0.318263     0.005394
PD1252   PD        0.337481    0.585943    0.282543     0.005394
PD1253   PD        0.375691    0.552505    0.281288     0.005394
PD1254   PD        0.375367    0.586341    0.315939     0.005394
PD1255   PD        0.449050    0.543028    0.343928     0.005394
PD1256   PD        0.413129    0.585430    0.283695     0.005394
PD1257   PD        0.449280    0.550915    0.281063     0.005394
PD1258   PD        0.449123    0.585024    0.315557     0.005394
PD1259   PD        0.486243    0.551108    0.316219     0.005394
PD1260   PD        0.516426    0.554230    0.280465     0.005394
PD1261   PD        0.525088    0.551268    0.282527     0.005394
PD1262   PD        0.523149    0.584778    0.316111     0.005394
PD1263   PD        0.564541    0.553035    0.309995     0.005394
PD1264   PD        0.559156    0.585116    0.282110     0.005394
PD1265   PD        0.597985    0.551551    0.280636     0.005394
PD1266   PD        0.595763    0.582705    0.316363     0.005394
PD1267   PD        0.632829    0.549209    0.315467     0.005394
PD1268   PD        0.633763    0.587127    0.282890     0.005394
PD1269   PD        0.709266    0.584141    0.285844     0.005394
PD1270   PD        0.671156    0.586982    0.315665     0.005394
PD1271   PD        0.707504    0.550662    0.317487     0.005394
PD1272   PD        0.702104    0.584463    0.279274     0.005394
PD1273   PD        0.743878    0.551407    0.282722     0.005394
NI1274   NI        0.781449    0.620526    0.314896     0.004307
PD1275   PD        0.782255    0.549064    0.316828     0.005394
NI1276   NI        0.781600    0.584094    0.281506     0.004307
NI1277   NI        0.818636    0.550501    0.282602     0.004307
NI1278   NI        0.865474    0.558867    0.292767     0.004307
NI1279   NI        0.855682    0.552407    0.316148     0.004307
NI1280   NI        0.121677    0.619833    0.317268     0.004307
NI1281   NI        0.117963    0.654133    0.281617     0.004307
NI1282   NI        0.155383    0.619656    0.281835     0.004307
NI1283   NI        0.156624    0.653428    0.317098     0.004307
PD1284   PD        0.192854    0.621767    0.314222     0.005394
NI1285   NI        0.191462    0.658078    0.283041     0.004307
PD1286   PD        0.229436    0.619548    0.283322     0.005394
PD1287   PD        0.228879    0.656232    0.316747     0.005394
PD1288   PD        0.264736    0.622603    0.315842     0.005394
PD1289   PD        0.264123    0.654156    0.281133     0.005394
PD1290   PD        0.301299    0.619426    0.282101     0.005394
PD1291   PD        0.302321    0.655922    0.316517     0.005394
PD1292   PD        0.337824    0.620049    0.314827     0.005394
PD1293   PD        0.338477    0.653960    0.281096     0.005394
PD1294   PD        0.376794    0.619628    0.282988     0.005394
PD1295   PD        0.374387    0.655500    0.314664     0.005394
PD1296   PD        0.421715    0.612596    0.334748     0.005394
PD1297   PD        0.416728    0.644766    0.301614     0.005394
PD1298   PD        0.448256    0.619197    0.280957     0.005394
PD1299   PD        0.449742    0.655111    0.316064     0.005394
PD1300   PD        0.484115    0.620164    0.315867     0.005394
PD1301   PD        0.485646    0.654738    0.281452     0.005394
PD1302   PD        0.521632    0.618355    0.282123     0.005394
PD1303   PD        0.522150    0.653455    0.315245     0.005394
PD1304   PD        0.559962    0.617802    0.315403     0.005394
NI1305   NI        0.550564    0.650303    0.264392     0.004307
PD1306   PD        0.598037    0.620977    0.281811     0.005394
PD1307   PD        0.599685    0.653710    0.316032     0.005394
PD1308   PD        0.634490    0.618844    0.316071     0.005394
PD1309   PD        0.634823    0.654968    0.280938     0.005394
PD1310   PD        0.669912    0.620495    0.282961     0.005394
PD1311   PD        0.669140    0.654291    0.315264     0.005394
PD1312   PD        0.707138    0.619450    0.317822     0.005394
NI1313   NI        0.707363    0.653659    0.282089     0.004307
NI1314   NI        0.757839    0.652006    0.290492     0.004307
NI1315   NI        0.744183    0.652781    0.316679     0.004307
NI1316   NI        0.770891    0.614586    0.315753     0.004307
NI1317   NI        0.783575    0.688164    0.248932     0.004307
NI1318   NI        0.154148    0.687732    0.282467     0.004307
NI1319   NI        0.189999    0.687524    0.315486     0.004307
NI1320   NI        0.155080    0.722699    0.315726     0.004307
NI1321   NI        0.193058    0.650287    0.279304     0.004307
NI1322   NI        0.191191    0.721045    0.280650     0.004307
PD1323   PD        0.265843    0.690454    0.317158     0.005394
NI1324   NI        0.264961    0.722478    0.282827     0.004307
PD1325   PD        0.303683    0.689051    0.281482     0.005394
NI1326   NI        0.302309    0.723870    0.315383     0.004307
PD1327   PD        0.338547    0.689983    0.315353     0.005394
NI1328   NI        0.340470    0.723979    0.281706     0.004307
NI1329   NI        0.361511    0.703354    0.276288     0.004307
PD1330   PD        0.377114    0.723069    0.316070     0.005394
PD1331   PD        0.414167    0.689661    0.315166     0.005394
NI1332   NI        0.444845    0.748693    0.277647     0.004307
PD1333   PD        0.450818    0.689148    0.280825     0.005394
PD1334   PD        0.450619    0.724221    0.314587     0.005394
PD1335   PD        0.485713    0.688738    0.315003     0.005394
PD1336   PD        0.486998    0.723633    0.279718     0.005394
PD1337   PD        0.522921    0.688366    0.281901     0.005394
PD1338   PD        0.521179    0.723022    0.315383     0.005394
PD1339   PD        0.562510    0.689703    0.315327     0.005394
NI1340   NI        0.558618    0.723892    0.284114     0.004307
PD1341   PD        0.596687    0.688828    0.280873     0.005394
PD1342   PD        0.599094    0.723018    0.316096     0.005394
PD1343   PD        0.635115    0.687686    0.316555     0.005394
NI1344   NI        0.634999    0.721280    0.282074     0.004307
NI1345   NI        0.673183    0.688725    0.281676     0.004307
NI1346   NI        0.671590    0.720967    0.317314     0.004307
NI1347   NI        0.708416    0.687576    0.314919     0.004307
NI1348   NI        0.708579    0.721607    0.281629     0.004307
NI1349   NI        0.744701    0.687989    0.279990     0.004307
NI1350   NI        0.265109    0.758091    0.317444     0.004307
NI1351   NI        0.300588    0.757412    0.280814     0.004307
NI1352   NI        0.262879    0.787011    0.284905     0.004307
NI1353   NI        0.338259    0.757234    0.315124     0.004307
NI1354   NI        0.339641    0.791992    0.281422     0.004307
NI1355   NI        0.377520    0.758883    0.281635     0.004307
NI1356   NI        0.395123    0.800394    0.308289     0.004307
PD1357   PD        0.413947    0.757612    0.314440     0.005394
NI1358   NI        0.413907    0.790980    0.280001     0.004307
NI1359   NI        0.449945    0.757349    0.279735     0.004307
NI1360   NI        0.449238    0.792281    0.315744     0.004307
NI1361   NI        0.521503    0.781948    0.313160     0.004307
NI1362   NI        0.526486    0.823488    0.278607     0.004307
NI1363   NI        0.523744    0.756290    0.278944     0.004307
NI1364   NI        0.524125    0.790805    0.313877     0.004307
NI1365   NI        0.560162    0.757530    0.315324     0.004307
NI1366   NI        0.560079    0.790642    0.280411     0.004307
NI1367   NI        0.599307    0.755320    0.280674     0.004307
NI1368   NI        0.598545    0.791816    0.312415     0.004307
NI1369   NI        0.628018    0.759113    0.310060     0.004307
NI1370   NI        0.267808    0.037606    0.348134     0.004307
NI1371   NI        0.305558    0.036614    0.380013     0.004307
NI1372   NI        0.340979    0.036330    0.347883     0.004307
NI1373   NI        0.380469    0.034665    0.381194     0.004307
NI1374   NI        0.414884    0.005298    0.379473     0.004307
NI1375   NI        0.416607    0.035512    0.346944     0.004307
NI1376   NI        0.454871    0.000714    0.348277     0.004307
NI1377   NI        0.453817    0.035136    0.382322     0.004307
NI1378   NI        0.524856    0.012408    0.417916     0.004307
NI1379   NI        0.477725    0.035294    0.356847     0.004307
NI1380   NI        0.528542    0.035361    0.381422     0.004307
NI1381   NI        0.563760    0.036883    0.347483     0.004307
NI1382   NI        0.599977    0.036755    0.384018     0.004307
NI1383   NI        0.638810    0.035883    0.348765     0.004307
NI1384   NI        0.163337    0.113233    0.379584     0.004307
NI1385   NI        0.199031    0.079748    0.382418     0.004307
NI1386   NI        0.195898    0.107718    0.345292     0.004307
NI1387   NI        0.229158    0.072500    0.346268     0.004307
NI1388   NI        0.231591    0.108265    0.382275     0.004307
NI1389   NI        0.270078    0.071567    0.382411     0.004307
NI1390   NI        0.237999    0.079769    0.350708     0.004307
NI1391   NI        0.306875    0.068846    0.348255     0.004307
NI1392   NI        0.307701    0.105093    0.381537     0.004307
NI1393   NI        0.343608    0.071862    0.382254     0.004307
PD1394   PD        0.343491    0.103741    0.345905     0.005394
NI1395   NI        0.378870    0.067756    0.346099     0.004307
PD1396   PD        0.380096    0.104994    0.382207     0.005394
NI1397   NI        0.417284    0.070071    0.381157     0.004307
PD1398   PD        0.417496    0.102949    0.345602     0.005394
NI1399   NI        0.469131    0.063138    0.325175     0.004307
PD1400   PD        0.454422    0.105011    0.382088     0.005394
NI1401   NI        0.470044    0.077285    0.371355     0.004307
PD1402   PD        0.490854    0.103955    0.345233     0.005394
NI1403   NI        0.527618    0.069060    0.347703     0.004307
NI1404   NI        0.522568    0.080463    0.365444     0.004307
NI1405   NI        0.564822    0.068613    0.381619     0.004307
PD1406   PD        0.566655    0.102831    0.347815     0.005394
NI1407   NI        0.603714    0.069750    0.348520     0.004307
NI1408   NI        0.602684    0.102402    0.380241     0.004307
NI1409   NI        0.637486    0.071059    0.382231     0.004307
NI1410   NI        0.638835    0.104985    0.348337     0.004307
NI1411   NI        0.673667    0.071228    0.348782     0.004307
NI1412   NI        0.675968    0.103858    0.382477     0.004307
NI1413   NI        0.749485    0.072653    0.350123     0.004307
NI1414   NI        0.713127    0.104468    0.348494     0.004307
NI1415   NI        0.746917    0.105144    0.384871     0.004307
NI1416   NI        0.091747    0.180710    0.383376     0.004307
NI1417   NI        0.126328    0.148009    0.385496     0.004307
NI1418   NI        0.126222    0.178208    0.351382     0.004307
NI1419   NI        0.163281    0.145134    0.348438     0.004307
NI1420   NI        0.162887    0.179195    0.382583     0.004307
NI1421   NI        0.198229    0.141701    0.382436     0.004307
NI1422   NI        0.199852    0.178675    0.346847     0.004307
NI1423   NI        0.205906    0.112715    0.350891     0.004307
PD1424   PD        0.233936    0.174059    0.381903     0.005394
NI1425   NI        0.267980    0.139165    0.382078     0.004307
NI1426   NI        0.232359    0.142316    0.346156     0.004307
PD1427   PD        0.307324    0.137135    0.346215     0.005394
PD1428   PD        0.306957    0.172878    0.382231     0.005394
PD1429   PD        0.344663    0.140908    0.381913     0.005394
NI1430   NI        0.330698    0.147825    0.355542     0.004307
PD1431   PD        0.380753    0.135734    0.345507     0.005394
PD1432   PD        0.353344    0.185321    0.372063     0.005394
PD1433   PD        0.418995    0.137368    0.380762     0.005394
PD1434   PD        0.419490    0.171758    0.347197     0.005394
PD1435   PD        0.455571    0.137730    0.346956     0.005394
PD1436   PD        0.454325    0.171523    0.380261     0.005394
PD1437   PD        0.491866    0.136233    0.382296     0.005394
PD1438   PD        0.491716    0.171745    0.345997     0.005394
PD1439   PD        0.527476    0.137700    0.347661     0.005394
PD1440   PD        0.526714    0.172618    0.380129     0.005394
PD1441   PD        0.565628    0.139334    0.381697     0.005394
PD1442   PD        0.565588    0.170461    0.347356     0.005394
PD1443   PD        0.602160    0.137650    0.346896     0.005394
PD1444   PD        0.601581    0.172111    0.380325     0.005394
PD1445   PD        0.639623    0.138219    0.382746     0.005394
PD1446   PD        0.637055    0.173179    0.348245     0.005394
NI1447   NI        0.670457    0.150746    0.367988     0.004307
PD1448   PD        0.675057    0.173059    0.379900     0.005394
NI1449   NI        0.712410    0.139082    0.382069     0.004307
PD1450   PD        0.710695    0.174816    0.347713     0.005394
NI1451   NI        0.749929    0.138702    0.349599     0.004307
NI1452   NI        0.749561    0.172224    0.381774     0.004307
NI1453   NI        0.785580    0.138401    0.383685     0.004307
NI1454   NI        0.784546    0.177151    0.350126     0.004307
NI1455   NI        0.816675    0.173013    0.386367     0.004307
NI1456   NI        0.022942    0.241308    0.327694     0.004307
NI1457   NI        0.063003    0.208725    0.322164     0.004307
NI1458   NI        0.058098    0.248855    0.354514     0.004307
NI1459   NI        0.126468    0.211774    0.384371     0.004307
NI1460   NI        0.128744    0.246220    0.349201     0.004307
NI1461   NI        0.172116    0.244862    0.364573     0.004307
PD1462   PD        0.162514    0.245414    0.383941     0.005394
PD1463   PD        0.198864    0.210928    0.384889     0.005394
PD1464   PD        0.232752    0.210638    0.348151     0.005394
PD1465   PD        0.243152    0.219145    0.348699     0.005394
PD1466   PD        0.235877    0.247332    0.384231     0.005394
PD1467   PD        0.270443    0.208233    0.381195     0.005394
PD1468   PD        0.270438    0.239980    0.346453     0.005394
PD1469   PD        0.307711    0.205799    0.346440     0.005394
PD1470   PD        0.296229    0.218939    0.387761     0.005394
PD1471   PD        0.343639    0.205840    0.382119     0.005394
PD1472   PD        0.342835    0.241512    0.345812     0.005394
PD1473   PD        0.382035    0.207375    0.345841     0.005394
PD1474   PD        0.377793    0.241585    0.379630     0.005394
PD1475   PD        0.415569    0.205846    0.382607     0.005394
PD1476   PD        0.418104    0.240124    0.348223     0.005394
PD1477   PD        0.453058    0.207462    0.348215     0.005394
PD1478   PD        0.454310    0.241567    0.381780     0.005394
PD1479   PD        0.491697    0.206391    0.382261     0.005394
PD1480   PD        0.492325    0.239614    0.347880     0.005394
PD1481   PD        0.528078    0.203992    0.347318     0.005394
PD1482   PD        0.525709    0.239371    0.381360     0.005394
PD1483   PD        0.566386    0.203802    0.380872     0.005394
PD1484   PD        0.566808    0.243631    0.346778     0.005394
PD1485   PD        0.602083    0.205629    0.347227     0.005394
PD1486   PD        0.604286    0.238611    0.380377     0.005394
PD1487   PD        0.637859    0.209058    0.383392     0.005394
PD1488   PD        0.637816    0.242058    0.346717     0.005394
PD1489   PD        0.675155    0.207363    0.349889     0.005394
PD1490   PD        0.676032    0.241569    0.381459     0.005394
PD1491   PD        0.711106    0.206821    0.381792     0.005394
PD1492   PD        0.711379    0.242572    0.350134     0.005394
NI1493   NI        0.748053    0.208611    0.348344     0.004307
PD1494   PD        0.748498    0.241929    0.383073     0.005394
NI1495   NI        0.785367    0.210788    0.384136     0.004307
NI1496   NI        0.784824    0.242419    0.349350     0.004307
NI1497   NI        0.853277    0.181318    0.351609     0.004307
NI1498   NI        0.820518    0.244505    0.384677     0.004307
NI1499   NI        0.853696    0.220289    0.320434     0.004307
NI1500   NI        0.053782    0.283965    0.389341     0.004307
NI1501   NI        0.022133    0.311208    0.317729     0.004307
NI1502   NI        0.092389    0.280995    0.349709     0.004307
NI1503   NI        0.064142    0.290155    0.383904     0.004307
PD1504   PD        0.129059    0.279441    0.384394     0.005394
PD1505   PD        0.127124    0.312623    0.352134     0.005394
PD1506   PD        0.164577    0.281965    0.351181     0.005394
PD1507   PD        0.162488    0.315062    0.384701     0.005394
PD1508   PD        0.199622    0.279772    0.382599     0.005394
PD1509   PD        0.202282    0.313955    0.352196     0.005394
PD1510   PD        0.236193    0.278273    0.348337     0.005394
PD1511   PD        0.237999    0.313900    0.381870     0.005394
PD1512   PD        0.272545    0.283673    0.386351     0.005394
PD1513   PD        0.273594    0.312634    0.351163     0.005394
PD1514   PD        0.280390    0.281786    0.319087     0.005394
PD1515   PD        0.300339    0.316156    0.390322     0.005394
PD1516   PD        0.346286    0.275779    0.381518     0.005394
PD1517   PD        0.344102    0.309313    0.347772     0.005394
PD1518   PD        0.381628    0.274965    0.347012     0.005394
PD1519   PD        0.382163    0.309206    0.380791     0.005394
PD1520   PD        0.416619    0.274276    0.381470     0.005394
PD1521   PD        0.417684    0.309536    0.348546     0.005394
PD1522   PD        0.451861    0.275429    0.348567     0.005394
PD1523   PD        0.452844    0.310188    0.382383     0.005394
PD1524   PD        0.492801    0.274331    0.382955     0.005394
PD1525   PD        0.486278    0.308919    0.348191     0.005394
PD1526   PD        0.529815    0.272659    0.347887     0.005394
PD1527   PD        0.521902    0.309597    0.385980     0.005394
PD1528   PD        0.603564    0.283902    0.394104     0.005394
PD1529   PD        0.564111    0.308302    0.347836     0.005394
PD1530   PD        0.602145    0.274973    0.349758     0.005394
PD1531   PD        0.599102    0.309792    0.383930     0.005394
PD1532   PD        0.637814    0.272520    0.382595     0.005394
PD1533   PD        0.666044    0.339852    0.353495     0.005394
PD1534   PD        0.676014    0.274887    0.347588     0.005394
PD1535   PD        0.670880    0.309142    0.382627     0.005394
PD1536   PD        0.737564    0.309763    0.384616     0.005394
PD1537   PD        0.710840    0.310472    0.349965     0.005394
PD1538   PD        0.748418    0.277524    0.349106     0.005394
PD1539   PD        0.747635    0.309650    0.384753     0.005394
PD1540   PD        0.783866    0.275538    0.383669     0.005394
NI1541   NI        0.790754    0.297588    0.322756     0.004307
NI1542   NI        0.774922    0.281114    0.379172     0.004307
NI1543   NI        0.829716    0.332320    0.387700     0.004307
NI1544   NI        0.893626    0.280377    0.351990     0.004307
NI1545   NI        0.858120    0.312790    0.350172     0.004307
NI1546   NI        0.017816    0.380107    0.383614     0.004307
NI1547   NI        0.053958    0.348131    0.387516     0.004307
NI1548   NI        0.055298    0.382870    0.351816     0.004307
NI1549   NI        0.092239    0.349389    0.352259     0.004307
NI1550   NI        0.086552    0.380359    0.386975     0.004307
PD1551   PD        0.126757    0.347619    0.383512     0.005394
PD1552   PD        0.124729    0.383387    0.353778     0.005394
PD1553   PD        0.162905    0.348130    0.353404     0.005394
PD1554   PD        0.159983    0.383588    0.385442     0.005394
PD1555   PD        0.194251    0.351628    0.389051     0.005394
PD1556   PD        0.201325    0.403427    0.327530     0.005394
PD1557   PD        0.235791    0.348297    0.349746     0.005394
PD1558   PD        0.224765    0.388046    0.389433     0.005394
PD1559   PD        0.284294    0.326731    0.394970     0.005394
PD1560   PD        0.267319    0.384367    0.353625     0.005394
PD1561   PD        0.300541    0.350726    0.359706     0.005394
PD1562   PD        0.300429    0.388611    0.387052     0.005394
PD1563   PD        0.307777    0.343196    0.348959     0.005394
PD1564   PD        0.343691    0.375175    0.349889     0.005394
PD1565   PD        0.414474    0.344633    0.374291     0.005394
PD1566   PD        0.382733    0.378560    0.380301     0.005394
PD1567   PD        0.417309    0.343402    0.383737     0.005394
PD1568   PD        0.419762    0.378012    0.347649     0.005394
PD1569   PD        0.449767    0.343704    0.352742     0.005394
PD1570   PD        0.450410    0.378022    0.384966     0.005394
PD1571   PD        0.487325    0.343571    0.384009     0.005394
PD1572   PD        0.486840    0.379601    0.350452     0.005394
PD1573   PD        0.523382    0.341433    0.349673     0.005394
PD1574   PD        0.521698    0.380180    0.383492     0.005394
PD1575   PD        0.563476    0.345066    0.384266     0.005394
PD1576   PD        0.566584    0.384408    0.375880     0.005394
PD1577   PD        0.598282    0.343718    0.348962     0.005394
PD1578   PD        0.598375    0.378857    0.383998     0.005394
PD1579   PD        0.633612    0.344148    0.385680     0.005394
PD1580   PD        0.600810    0.408265    0.350119     0.005394
PD1581   PD        0.674233    0.345838    0.349549     0.005394
PD1582   PD        0.665009    0.384172    0.380009     0.005394
PD1583   PD        0.708301    0.346710    0.383971     0.005394
PD1584   PD        0.709236    0.377669    0.351726     0.005394
PD1585   PD        0.745350    0.343991    0.350345     0.005394
PD1586   PD        0.745624    0.378749    0.384826     0.005394
PD1587   PD        0.781587    0.344531    0.384126     0.005394
PD1588   PD        0.780541    0.378135    0.350241     0.005394
NI1589   NI        0.818751    0.345708    0.349929     0.004307
PD1590   PD        0.815953    0.377976    0.385259     0.005394
NI1591   NI        0.866301    0.356691    0.371542     0.004307
NI1592   NI        0.855745    0.381499    0.352088     0.004307
NI1593   NI        0.888498    0.379671    0.388618     0.004307
NI1594   NI        0.029818    0.412432    0.358497     0.004307
NI1595   NI        0.016146    0.447661    0.386069     0.004307
NI1596   NI        0.018244    0.417097    0.351543     0.004307
NI1597   NI        0.052506    0.451263    0.352210     0.004307
NI1598   NI        0.090311    0.420021    0.349248     0.004307
NI1599   NI        0.085641    0.449793    0.386743     0.004307
PD1600   PD        0.119274    0.416402    0.389105     0.005394
NI1601   NI        0.081654    0.413421    0.355802     0.004307
NI1602   NI        0.150226    0.391981    0.338766     0.004307
PD1603   PD        0.157234    0.450946    0.386780     0.005394
PD1604   PD        0.191881    0.418334    0.387648     0.005394
PD1605   PD        0.229271    0.456283    0.327067     0.005394
PD1606   PD        0.233126    0.418388    0.355380     0.005394
PD1607   PD        0.226918    0.453875    0.386290     0.005394
PD1608   PD        0.251330    0.388542    0.397941     0.005394
PD1609   PD        0.267624    0.451031    0.352809     0.005394
PD1610   PD        0.300034    0.418974    0.353316     0.005394
PD1611   PD        0.299810    0.452291    0.387171     0.005394
PD1612   PD        0.336448    0.418954    0.385355     0.005394
PD1613   PD        0.337982    0.448906    0.352603     0.005394
PD1614   PD        0.377457    0.413331    0.351197     0.005394
PD1615   PD        0.372851    0.426946    0.421791     0.005394
PD1616   PD        0.410464    0.417886    0.384787     0.005394
PD1617   PD        0.411177    0.450958    0.351122     0.005394
PD1618   PD        0.449048    0.412903    0.352030     0.005394
PD1619   PD        0.450253    0.448786    0.386338     0.005394
PD1620   PD        0.488040    0.413402    0.384377     0.005394
PD1621   PD        0.487047    0.447456    0.351249     0.005394
PD1622   PD        0.522672    0.414669    0.349346     0.005394
PD1623   PD        0.521623    0.448845    0.384959     0.005394
PD1624   PD        0.561434    0.414602    0.382684     0.005394
PD1625   PD        0.528044    0.442569    0.383517     0.005394
PD1626   PD        0.597461    0.416063    0.352727     0.005394
PD1627   PD        0.597130    0.447594    0.385454     0.005394
PD1628   PD        0.633873    0.413855    0.385313     0.005394
PD1629   PD        0.632818    0.446859    0.351873     0.005394
PD1630   PD        0.671434    0.414513    0.350639     0.005394
PD1631   PD        0.671923    0.447640    0.385271     0.005394
PD1632   PD        0.709631    0.415720    0.385406     0.005394
PD1633   PD        0.709158    0.447600    0.351117     0.005394
PD1634   PD        0.744515    0.413544    0.350656     0.005394
PD1635   PD        0.744331    0.448270    0.384790     0.005394
PD1636   PD        0.780466    0.412854    0.386176     0.005394
PD1637   PD        0.780724    0.447293    0.349757     0.005394
NI1638   NI        0.785827    0.385485    0.352287     0.004307
NI1639   NI        0.855106    0.482421    0.384977     0.004307
NI1640   NI        0.893199    0.415102    0.352398     0.004307
NI1641   NI        0.856577    0.449255    0.351102     0.004307
NI1642   NI        0.922082    0.412690    0.382821     0.004307
NI1643   NI        0.890748    0.447711    0.386460     0.004307
NI1644   NI        0.053609    0.481831    0.385206     0.004307
NI1645   NI        0.051654    0.519246    0.352534     0.004307
NI1646   NI        0.088463    0.484999    0.353775     0.004307
NI1647   NI        0.087207    0.518311    0.385645     0.004307
PD1648   PD        0.117942    0.483421    0.388296     0.005394
NI1649   NI        0.119248    0.520555    0.351688     0.004307
PD1650   PD        0.155080    0.483301    0.353465     0.005394
NI1651   NI        0.184430    0.513333    0.372597     0.004307
PD1652   PD        0.192071    0.484287    0.388475     0.005394
PD1653   PD        0.223421    0.490497    0.354992     0.005394
PD1654   PD        0.230890    0.482983    0.352873     0.005394
PD1655   PD        0.227472    0.519321    0.386614     0.005394
PD1656   PD        0.265272    0.485390    0.386420     0.005394
PD1657   PD        0.263792    0.518517    0.352165     0.005394
PD1658   PD        0.301028    0.487045    0.351829     0.005394
PD1659   PD        0.302427    0.519269    0.385253     0.005394
PD1660   PD        0.336651    0.485072    0.384975     0.005394
PD1661   PD        0.339435    0.520192    0.352207     0.005394
PD1662   PD        0.374201    0.489023    0.350344     0.005394
PD1663   PD        0.374597    0.518072    0.383942     0.005394
PD1664   PD        0.410661    0.484425    0.384854     0.005394
PD1665   PD        0.412389    0.516265    0.350531     0.005394
PD1666   PD        0.449783    0.482621    0.351984     0.005394
PD1667   PD        0.447316    0.517091    0.384619     0.005394
PD1668   PD        0.484410    0.483993    0.386349     0.005394
PD1669   PD        0.487000    0.517177    0.351012     0.005394
PD1670   PD        0.522906    0.482153    0.351891     0.005394
PD1671   PD        0.522203    0.516299    0.385722     0.005394
PD1672   PD        0.560061    0.482731    0.385362     0.005394
PD1673   PD        0.559817    0.550985    0.317373     0.005394
PD1674   PD        0.596993    0.482193    0.348993     0.005394
PD1675   PD        0.597250    0.517361    0.383816     0.005394
PD1676   PD        0.635874    0.482165    0.384551     0.005394
PD1677   PD        0.633227    0.516703    0.350216     0.005394
PD1678   PD        0.672566    0.483062    0.350706     0.005394
PD1679   PD        0.671530    0.515967    0.384347     0.005394
PD1680   PD        0.706585    0.483415    0.383083     0.005394
PD1681   PD        0.707250    0.516683    0.350407     0.005394
PD1682   PD        0.744147    0.482162    0.350271     0.005394
PD1683   PD        0.745925    0.517850    0.385014     0.005394
PD1684   PD        0.782765    0.483134    0.382118     0.005394
PD1685   PD        0.782353    0.516277    0.351584     0.005394
NI1686   NI        0.820192    0.482481    0.349728     0.004307
PD1687   PD        0.819022    0.518220    0.383935     0.005394
NI1688   NI        0.850842    0.516465    0.358914     0.004307
NI1689   NI        0.856146    0.517063    0.348464     0.004307
NI1690   NI        0.054247    0.556453    0.387246     0.004307
NI1691   NI        0.053572    0.586674    0.353895     0.004307
NI1692   NI        0.083939    0.550022    0.350489     0.004307
NI1693   NI        0.095876    0.605954    0.374029     0.004307
NI1694   NI        0.116472    0.556245    0.387505     0.004307
NI1695   NI        0.121860    0.585360    0.350518     0.004307
PD1696   PD        0.154258    0.554559    0.351235     0.005394
PD1697   PD        0.156559    0.590309    0.384432     0.005394
PD1698   PD        0.190743    0.553608    0.386254     0.005394
PD1699   PD        0.192368    0.587708    0.350563     0.005394
PD1700   PD        0.192623    0.549130    0.316864     0.005394
PD1701   PD        0.226450    0.588408    0.385221     0.005394
PD1702   PD        0.266238    0.552719    0.386353     0.005394
PD1703   PD        0.264377    0.586839    0.351000     0.005394
PD1704   PD        0.303572    0.551186    0.350117     0.005394
PD1705   PD        0.301515    0.587727    0.384377     0.005394
PD1706   PD        0.336247    0.553742    0.384664     0.005394
PD1707   PD        0.339634    0.588653    0.351157     0.005394
PD1708   PD        0.376718    0.551640    0.352041     0.005394
PD1709   PD        0.376523    0.587199    0.384527     0.005394
PD1710   PD        0.413093    0.552413    0.384512     0.005394
PD1711   PD        0.413516    0.585015    0.349914     0.005394
PD1712   PD        0.451541    0.551699    0.352006     0.005394
PD1713   PD        0.449176    0.586135    0.385586     0.005394
PD1714   PD        0.485607    0.551558    0.384884     0.005394
PD1715   PD        0.519691    0.610055    0.346719     0.005394
PD1716   PD        0.521022    0.550088    0.351711     0.005394
PD1717   PD        0.522041    0.586933    0.383440     0.005394
PD1718   PD        0.560751    0.551232    0.386479     0.005394
PD1719   PD        0.558390    0.584506    0.350933     0.005394
PD1720   PD        0.597625    0.550556    0.350703     0.005394
PD1721   PD        0.596147    0.585258    0.383939     0.005394
PD1722   PD        0.634002    0.550872    0.384600     0.005394
PD1723   PD        0.626970    0.612944    0.323592     0.005394
PD1724   PD        0.670105    0.551789    0.350628     0.005394
PD1725   PD        0.671939    0.584744    0.383046     0.005394
PD1726   PD        0.707606    0.551318    0.385192     0.005394
PD1727   PD        0.708315    0.584904    0.350416     0.005394
PD1728   PD        0.744521    0.550172    0.351582     0.005394
PD1729   PD        0.744425    0.584939    0.383085     0.005394
PD1730   PD        0.780940    0.550514    0.385481     0.005394
PD1731   PD        0.781552    0.584611    0.349859     0.005394
NI1732   NI        0.819316    0.552049    0.350447     0.004307
NI1733   NI        0.817323    0.585965    0.383731     0.004307
NI1734   NI        0.855225    0.551724    0.383654     0.004307
NI1735   NI        0.855857    0.587021    0.349821     0.004307
NI1736   NI        0.084592    0.621036    0.348618     0.004307
NI1737   NI        0.082223    0.652028    0.387205     0.004307
NI1738   NI        0.117563    0.619985    0.384371     0.004307
NI1739   NI        0.109753    0.662818    0.382545     0.004307
NI1740   NI        0.156038    0.621739    0.350434     0.004307
NI1741   NI        0.130385    0.664112    0.401521     0.004307
PD1742   PD        0.191646    0.622678    0.386880     0.005394
PD1743   PD        0.193090    0.655930    0.350431     0.005394
PD1744   PD        0.227158    0.622655    0.349203     0.005394
PD1745   PD        0.228032    0.657272    0.386493     0.005394
PD1746   PD        0.263390    0.622291    0.385916     0.005394
PD1747   PD        0.264090    0.657675    0.352168     0.005394
PD1748   PD        0.272813    0.626470    0.382010     0.005394
NI1749   NI        0.274480    0.687003    0.383987     0.004307
PD1750   PD        0.333432    0.625583    0.384351     0.005394
PD1751   PD        0.340704    0.620288    0.386738     0.005394
PD1752   PD        0.374326    0.619884    0.349956     0.005394
PD1753   PD        0.375069    0.656144    0.383580     0.005394
PD1754   PD        0.440255    0.623783    0.377485     0.005394
PD1755   PD        0.412157    0.655514    0.350321     0.005394
PD1756   PD        0.450510    0.620502    0.350625     0.005394
PD1757   PD        0.460812    0.663939    0.385460     0.005394
PD1758   PD        0.487253    0.619504    0.385217     0.005394
PD1759   PD        0.487383    0.654907    0.349055     0.005394
PD1760   PD        0.522987    0.620108    0.349876     0.005394
PD1761   PD        0.523845    0.655349    0.385604     0.005394
PD1762   PD        0.559732    0.622547    0.383461     0.005394
PD1763   PD        0.598164    0.689946    0.349705     0.005394
PD1764   PD        0.594401    0.647379    0.321316     0.005394
PD1765   PD        0.597241    0.655346    0.384255     0.005394
PD1766   PD        0.635049    0.619669    0.386459     0.005394
PD1767   PD        0.632649    0.653363    0.348786     0.005394
PD1768   PD        0.670875    0.620220    0.349669     0.005394
PD1769   PD        0.672077    0.655620    0.382248     0.005394
NI1770   NI        0.719866    0.647199    0.396909     0.004307
PD1771   PD        0.706621    0.654465    0.349084     0.005394
PD1772   PD        0.743592    0.617553    0.351986     0.005394
NI1773   NI        0.710637    0.668877    0.359414     0.004307
NI1774   NI        0.780517    0.618173    0.383595     0.004307
NI1775   NI        0.745814    0.653309    0.381604     0.004307
NI1776   NI        0.820081    0.620990    0.350459     0.004307
NI1777   NI        0.818762    0.653133    0.383358     0.004307
NI1778   NI        0.107783    0.683752    0.360165     0.004307
NI1779   NI        0.153595    0.689940    0.349990     0.004307
NI1780   NI        0.155834    0.759653    0.416955     0.004307
NI1781   NI        0.191000    0.691734    0.385283     0.004307
NI1782   NI        0.191234    0.724041    0.350330     0.004307
NI1783   NI        0.227528    0.690647    0.350662     0.004307
NI1784   NI        0.227865    0.726074    0.384040     0.004307
PD1785   PD        0.263965    0.691417    0.385065     0.005394
PD1786   PD        0.265886    0.722964    0.351837     0.005394
PD1787   PD        0.300751    0.690195    0.350618     0.005394
PD1788   PD        0.302454    0.724413    0.383896     0.005394
PD1789   PD        0.337668    0.690778    0.384857     0.005394
NI1790   NI        0.368192    0.696340    0.335437     0.004307
PD1791   PD        0.376295    0.689916    0.350101     0.005394
PD1792   PD        0.378857    0.724027    0.384508     0.005394
PD1793   PD        0.413223    0.691307    0.385067     0.005394
NI1794   NI        0.408325    0.735709    0.373090     0.004307
PD1795   PD        0.450069    0.690351    0.349416     0.005394
PD1796   PD        0.450136    0.723762    0.383997     0.005394
PD1797   PD        0.487102    0.690018    0.385120     0.005394
PD1798   PD        0.486691    0.723623    0.349651     0.005394
NI1799   NI        0.531753    0.704800    0.346222     0.004307
PD1800   PD        0.522351    0.723860    0.385207     0.005394
NI1801   NI        0.567916    0.700445    0.379469     0.004307
NI1802   NI        0.524527    0.748697    0.348530     0.004307
NI1803   NI        0.592124    0.687356    0.342733     0.004307
NI1804   NI        0.590431    0.745467    0.396058     0.004307
NI1805   NI        0.660162    0.697712    0.375152     0.004307
NI1806   NI        0.632272    0.722885    0.347414     0.004307
PD1807   PD        0.670696    0.688898    0.349272     0.005394
NI1808   NI        0.693609    0.732143    0.376447     0.004307
NI1809   NI        0.708419    0.689516    0.383287     0.004307
NI1810   NI        0.709233    0.722515    0.349289     0.004307
NI1811   NI        0.744809    0.722596    0.380515     0.004307
NI1812   NI        0.739021    0.719645    0.389694     0.004307
NI1813   NI        0.777683    0.688061    0.387276     0.004307
NI1814   NI        0.191987    0.759682    0.385480     0.004307
NI1815   NI        0.228812    0.759490    0.349181     0.004307
NI1816   NI        0.264451    0.758113    0.383919     0.004307
NI1817   NI        0.302715    0.826994    0.347597     0.004307
NI1818   NI        0.302885    0.793064    0.315496     0.004307
NI1819   NI        0.302525    0.793454    0.382643     0.004307
NI1820   NI        0.339556    0.759280    0.383064     0.004307
NI1821   NI        0.337092    0.791659    0.350103     0.004307
NI1822   NI        0.368682    0.766798    0.328162     0.004307
NI1823   NI        0.378319    0.793106    0.383929     0.004307
NI1824   NI        0.411135    0.782947    0.350789     0.004307
NI1825   NI        0.414276    0.792461    0.348518     0.004307
PD1826   PD        0.449323    0.757028    0.349848     0.005394
NI1827   NI        0.450058    0.792417    0.382835     0.004307
PD1828   PD        0.487270    0.759771    0.382189     0.005394
NI1829   NI        0.485451    0.792006    0.348848     0.004307
PD1830   PD        0.523141    0.757785    0.350034     0.005394
NI1831   NI        0.522418    0.793027    0.383515     0.004307
NI1832   NI        0.560717    0.756696    0.384080     0.004307
NI1833   NI        0.592860    0.819238    0.346782     0.004307
NI1834   NI        0.596740    0.757846    0.349443     0.004307
NI1835   NI        0.598681    0.791177    0.383860     0.004307
NI1836   NI        0.635469    0.757916    0.381264     0.004307
NI1837   NI        0.634774    0.791948    0.347922     0.004307
NI1838   NI        0.685285    0.754480    0.341361     0.004307
NI1839   NI        0.708411    0.756668    0.383479     0.004307
NI1840   NI        0.375136    0.818562    0.345458     0.004307
NI1841   NI        0.450716    0.827578    0.349167     0.004307
NI1842   NI        0.487483    0.826970    0.381373     0.004307
NI1843   NI        0.267771    0.040131    0.413877     0.004307
NI1844   NI        0.329061    0.025355    0.441892     0.004307
NI1845   NI        0.343876    0.037041    0.418699     0.004307
NI1846   NI        0.380758    0.004790    0.419422     0.004307
NI1847   NI        0.378793    0.038294    0.450113     0.004307
NI1848   NI        0.415937    0.010526    0.454552     0.004307
NI1849   NI        0.417178    0.034981    0.416070     0.004307
NI1850   NI        0.492712    0.004892    0.383455     0.004307
NI1851   NI        0.412514    0.044396    0.419554     0.004307
NI1852   NI        0.488905    0.009104    0.449838     0.004307
NI1853   NI        0.492270    0.035221    0.414997     0.004307
NI1854   NI        0.527381    0.001211    0.416821     0.004307
NI1855   NI        0.528468    0.037126    0.452758     0.004307
NI1856   NI        0.565206    0.036742    0.417808     0.004307
NI1857   NI        0.599457    0.036301    0.452200     0.004307
NI1858   NI        0.642123    0.062710    0.415648     0.004307
NI1859   NI        0.157578    0.116125    0.444058     0.004307
NI1860   NI        0.197763    0.075513    0.449934     0.004307
NI1861   NI        0.195205    0.109371    0.414707     0.004307
NI1862   NI        0.230119    0.073868    0.414939     0.004307
NI1863   NI        0.232807    0.106584    0.448957     0.004307
NI1864   NI        0.293521    0.059956    0.446002     0.004307
NI1865   NI        0.269624    0.107854    0.415042     0.004307
NI1866   NI        0.305598    0.074187    0.413588     0.004307
PD1867   PD        0.306374    0.106616    0.450477     0.005394
NI1868   NI        0.342510    0.071749    0.449489     0.004307
PD1869   PD        0.342910    0.105478    0.416085     0.005394
NI1870   NI        0.378594    0.071708    0.413873     0.004307
PD1871   PD        0.377118    0.107777    0.449198     0.005394
NI1872   NI        0.427693    0.067398    0.467879     0.004307
PD1873   PD        0.415651    0.103703    0.414542     0.005394
PD1874   PD        0.453636    0.068931    0.415341     0.005394
NI1875   NI        0.426676    0.101913    0.478383     0.004307
NI1876   NI        0.491547    0.068873    0.448832     0.004307
NI1877   NI        0.489938    0.077858    0.449167     0.004307
NI1878   NI        0.527438    0.068713    0.415036     0.004307
PD1879   PD        0.528009    0.104763    0.450169     0.005394
PD1880   PD        0.564229    0.071226    0.451069     0.005394
PD1881   PD        0.564887    0.104406    0.417625     0.005394
NI1882   NI        0.602521    0.070742    0.417484     0.004307
PD1883   PD        0.600638    0.104053    0.450564     0.005394
NI1884   NI        0.606749    0.093035    0.432421     0.004307
NI1885   NI        0.644221    0.119008    0.425203     0.004307
NI1886   NI        0.673162    0.079301    0.421673     0.004307
NI1887   NI        0.705322    0.172830    0.422532     0.004307
NI1888   NI        0.707425    0.078690    0.449904     0.004307
NI1889   NI        0.713633    0.106536    0.417793     0.004307
NI1890   NI        0.747439    0.105757    0.453933     0.004307
NI1891   NI        0.090851    0.182584    0.455260     0.004307
NI1892   NI        0.124393    0.150687    0.453375     0.004307
NI1893   NI        0.126755    0.181392    0.418023     0.004307
NI1894   NI        0.153023    0.178688    0.426387     0.004307
NI1895   NI        0.161841    0.179586    0.452345     0.004307
NI1896   NI        0.195465    0.146747    0.448468     0.004307
PD1897   PD        0.202333    0.180144    0.413896     0.005394
PD1898   PD        0.232538    0.141557    0.418552     0.005394
PD1899   PD        0.234478    0.176669    0.450391     0.005394
PD1900   PD        0.270288    0.140155    0.449367     0.005394
NI1901   NI        0.261441    0.189144    0.410715     0.004307
PD1902   PD        0.305928    0.138153    0.415728     0.005394
NI1903   NI        0.292230    0.171986    0.440512     0.004307
PD1904   PD        0.341970    0.138314    0.449858     0.005394
PD1905   PD        0.342542    0.173094    0.416590     0.005394
PD1906   PD        0.379820    0.140639    0.415373     0.005394
PD1907   PD        0.380696    0.172378    0.448924     0.005394
PD1908   PD        0.414838    0.139967    0.449582     0.005394
PD1909   PD        0.417489    0.172382    0.414924     0.005394
PD1910   PD        0.451682    0.138131    0.415768     0.005394
PD1911   PD        0.454234    0.171100    0.450328     0.005394
PD1912   PD        0.448911    0.106788    0.448284     0.005394
PD1913   PD        0.490333    0.169608    0.415273     0.005394
PD1914   PD        0.530234    0.136098    0.416038     0.005394
PD1915   PD        0.526873    0.171235    0.450058     0.005394
PD1916   PD        0.565886    0.137124    0.449572     0.005394
PD1917   PD        0.564863    0.170890    0.414706     0.005394
PD1918   PD        0.603036    0.138081    0.415630     0.005394
PD1919   PD        0.599416    0.172265    0.449523     0.005394
NI1920   NI        0.614130    0.130122    0.461095     0.004307
PD1921   PD        0.639761    0.172227    0.415340     0.005394
NI1922   NI        0.675147    0.137648    0.414884     0.004307
PD1923   PD        0.674794    0.173451    0.451446     0.005394
NI1924   NI        0.708873    0.145755    0.452144     0.004307
NI1925   NI        0.706581    0.136543    0.451764     0.004307
NI1926   NI        0.746677    0.140165    0.416821     0.004307
NI1927   NI        0.747621    0.174612    0.453176     0.004307
NI1928   NI        0.783522    0.139827    0.450700     0.004307
NI1929   NI        0.782448    0.173925    0.419434     0.004307
NI1930   NI        0.814371    0.176513    0.450031     0.004307
NI1931   NI        0.091869    0.250088    0.383966     0.004307
NI1932   NI        0.094404    0.214783    0.418426     0.004307
NI1933   NI        0.092866    0.247235    0.451157     0.004307
NI1934   NI        0.128289    0.212160    0.449861     0.004307
PD1935   PD        0.127742    0.247178    0.417693     0.005394
PD1936   PD        0.162404    0.210872    0.419152     0.005394
PD1937   PD        0.162013    0.245006    0.450767     0.005394
PD1938   PD        0.199210    0.213279    0.450481     0.005394
PD1939   PD        0.197716    0.247477    0.415699     0.005394
PD1940   PD        0.227795    0.220385    0.418339     0.005394
PD1941   PD        0.235592    0.246965    0.452462     0.005394
PD1942   PD        0.268986    0.212135    0.449747     0.005394
PD1943   PD        0.268642    0.248974    0.419231     0.005394
PD1944   PD        0.307810    0.209729    0.415783     0.005394
PD1945   PD        0.308579    0.240970    0.448763     0.005394
PD1946   PD        0.345767    0.207993    0.451219     0.005394
PD1947   PD        0.343980    0.241089    0.415277     0.005394
PD1948   PD        0.380449    0.208045    0.415534     0.005394
PD1949   PD        0.380566    0.242617    0.449458     0.005394
PD1950   PD        0.417155    0.205520    0.451102     0.005394
PD1951   PD        0.443307    0.247660    0.425411     0.005394
PD1952   PD        0.452540    0.205502    0.414076     0.005394
PD1953   PD        0.456463    0.252070    0.470423     0.005394
PD1954   PD        0.490057    0.178574    0.415899     0.005394
PD1955   PD        0.490626    0.239344    0.416778     0.005394
PD1956   PD        0.527724    0.205789    0.416782     0.005394
PD1957   PD        0.527197    0.243477    0.450251     0.005394
PD1958   PD        0.542200    0.234654    0.458457     0.005394
PD1959   PD        0.562078    0.243489    0.415713     0.005394
PD1960   PD        0.601429    0.204602    0.414425     0.005394
PD1961   PD        0.596349    0.240288    0.451495     0.005394
PD1962   PD        0.636391    0.208103    0.449580     0.005394
PD1963   PD        0.640122    0.239176    0.416020     0.005394
PD1964   PD        0.673745    0.209422    0.416221     0.005394
PD1965   PD        0.671419    0.243466    0.453003     0.005394
PD1966   PD        0.706228    0.207180    0.450972     0.005394
PD1967   PD        0.710234    0.241214    0.416425     0.005394
NI1968   NI        0.744031    0.207757    0.418060     0.004307
NI1969   NI        0.777836    0.208781    0.449745     0.004307
NI1970   NI        0.786082    0.212418    0.452382     0.004307
PD1971   PD        0.782171    0.241396    0.418554     0.005394
NI1972   NI        0.821037    0.209092    0.418662     0.004307
NI1973   NI        0.818082    0.243549    0.452482     0.004307
NI1974   NI        0.855310    0.240760    0.419332     0.004307
NI1975   NI        0.054540    0.276682    0.449607     0.004307
NI1976   NI        0.052010    0.315302    0.420221     0.004307
NI1977   NI        0.089219    0.278839    0.418912     0.004307
NI1978   NI        0.090325    0.312893    0.452206     0.004307
PD1979   PD        0.126333    0.281541    0.452065     0.005394
PD1980   PD        0.126719    0.315474    0.418710     0.005394
PD1981   PD        0.163318    0.280560    0.416637     0.005394
PD1982   PD        0.161552    0.313784    0.450179     0.005394
PD1983   PD        0.197922    0.280136    0.451203     0.005394
NI1984   NI        0.205319    0.302069    0.408244     0.004307
PD1985   PD        0.232451    0.280053    0.414666     0.005394
PD1986   PD        0.228134    0.294026    0.458701     0.005394
PD1987   PD        0.272552    0.275393    0.452846     0.005394
PD1988   PD        0.260754    0.314224    0.422786     0.005394
PD1989   PD        0.310206    0.277126    0.415335     0.005394
PD1990   PD        0.310490    0.310906    0.449315     0.005394
PD1991   PD        0.345642    0.276855    0.449611     0.005394
PD1992   PD        0.345770    0.310633    0.415960     0.005394
PD1993   PD        0.381388    0.274932    0.415046     0.005394
PD1994   PD        0.380367    0.308027    0.448835     0.005394
PD1995   PD        0.415625    0.274943    0.452088     0.005394
PD1996   PD        0.417886    0.310222    0.416881     0.005394
PD1997   PD        0.454017    0.276237    0.415716     0.005394
PD1998   PD        0.422537    0.308402    0.474626     0.005394
PD1999   PD        0.488141    0.276756    0.449704     0.005394
PD2000   PD        0.489077    0.309615    0.418022     0.005394
PD2001   PD        0.525341    0.275645    0.419120     0.005394
PD2002   PD        0.524893    0.311848    0.452766     0.005394
PD2003   PD        0.561296    0.279948    0.453310     0.005394
PD2004   PD        0.561637    0.311825    0.417901     0.005394
PD2005   PD        0.602900    0.275976    0.416705     0.005394
PD2006   PD        0.598521    0.310279    0.451485     0.005394
PD2007   PD        0.633641    0.275921    0.453317     0.005394
PD2008   PD        0.635655    0.310655    0.417610     0.005394
NI2009   NI        0.696339    0.287751    0.415812     0.004307
PD2010   PD        0.689541    0.323109    0.461207     0.005394
NI2011   NI        0.717649    0.288138    0.474680     0.004307
NI2012   NI        0.716433    0.301433    0.392284     0.004307
PD2013   PD        0.745930    0.276059    0.416521     0.005394
NI2014   NI        0.716872    0.342386    0.440790     0.004307
NI2015   NI        0.800988    0.288745    0.459896     0.004307
PD2016   PD        0.780119    0.310418    0.419063     0.005394
NI2017   NI        0.818118    0.274597    0.419577     0.004307
NI2018   NI        0.845056    0.314093    0.479485     0.004307
NI2019   NI        0.855000    0.276298    0.454183     0.004307
NI2020   NI        0.849711    0.311498    0.420916     0.004307
NI2021   NI        0.015408    0.347643    0.419149     0.004307
NI2022   NI        0.018613    0.381701    0.456734     0.004307
NI2023   NI        0.052895    0.316459    0.421226     0.004307
NI2024   NI        0.048729    0.379235    0.421178     0.004307
NI2025   NI        0.085431    0.348200    0.424927     0.004307
NI2026   NI        0.084418    0.381326    0.451310     0.004307
PD2027   PD        0.125288    0.348164    0.456150     0.005394
NI2028   NI        0.092498    0.351083    0.419130     0.004307
PD2029   PD        0.160131    0.349380    0.421318     0.005394
PD2030   PD        0.157209    0.382622    0.455364     0.005394
PD2031   PD        0.199196    0.347487    0.452947     0.005394
PD2032   PD        0.189830    0.383842    0.423046     0.005394
PD2033   PD        0.230563    0.352357    0.419383     0.005394
PD2034   PD        0.226245    0.386187    0.454092     0.005394
PD2035   PD        0.247064    0.335441    0.463023     0.005394
PD2036   PD        0.261874    0.387739    0.420200     0.005394
PD2037   PD        0.298788    0.336330    0.438687     0.005394
PD2038   PD        0.309977    0.380409    0.452305     0.005394
PD2039   PD        0.346173    0.344637    0.447319     0.005394
PD2040   PD        0.339783    0.386155    0.416155     0.005394
PD2041   PD        0.383757    0.343879    0.414869     0.005394
PD2042   PD        0.373993    0.383416    0.453638     0.005394
PD2043   PD        0.410961    0.348075    0.450934     0.005394
PD2044   PD        0.410865    0.383178    0.417800     0.005394
PD2045   PD        0.448299    0.345487    0.418984     0.005394
PD2046   PD        0.445651    0.383774    0.452340     0.005394
PD2047   PD        0.485066    0.347412    0.448443     0.005394
PD2048   PD        0.485722    0.377745    0.417695     0.005394
PD2049   PD        0.524721    0.348654    0.413795     0.005394
PD2050   PD        0.522023    0.381626    0.452653     0.005394
PD2051   PD        0.560220    0.346534    0.451261     0.005394
PD2052   PD        0.559431    0.380744    0.418383     0.005394
PD2053   PD        0.598948    0.346324    0.417855     0.005394
PD2054   PD        0.594758    0.380937    0.450606     0.005394
PD2055   PD        0.631866    0.344207    0.451105     0.005394
PD2056   PD        0.633692    0.379513    0.419482     0.005394
PD2057   PD        0.669735    0.346435    0.419434     0.005394
PD2058   PD        0.670097    0.379054    0.453456     0.005394
PD2059   PD        0.707235    0.346052    0.450947     0.005394
PD2060   PD        0.708402    0.380172    0.418068     0.005394
NI2061   NI        0.749162    0.374881    0.437816     0.004307
PD2062   PD        0.744795    0.379610    0.451486     0.005394
PD2063   PD        0.779706    0.344701    0.452442     0.005394
PD2064   PD        0.780622    0.378578    0.419067     0.005394
PD2065   PD        0.816230    0.344785    0.420325     0.005394
PD2066   PD        0.815587    0.378774    0.452997     0.005394
NI2067   NI        0.854669    0.348182    0.451129     0.004307
NI2068   NI        0.885819    0.382867    0.453216     0.004307
NI2069   NI        0.894512    0.345789    0.419861     0.004307
NI2070   NI        0.922140    0.414705    0.454501     0.004307
NI2071   NI        0.017430    0.418297    0.420369     0.004307
NI2072   NI        0.017438    0.445336    0.458840     0.004307
NI2073   NI        0.049141    0.415965    0.453957     0.004307
NI2074   NI        0.052117    0.452178    0.422223     0.004307
NI2075   NI        0.084282    0.415703    0.422413     0.004307
PD2076   PD        0.086478    0.451194    0.453707     0.005394
PD2077   PD        0.119123    0.415431    0.454678     0.005394
PD2078   PD        0.120091    0.449606    0.422764     0.005394
PD2079   PD        0.156809    0.415033    0.422413     0.005394
PD2080   PD        0.152120    0.451430    0.456208     0.005394
PD2081   PD        0.190928    0.418283    0.456656     0.005394
PD2082   PD        0.189284    0.451230    0.420425     0.005394
PD2083   PD        0.224796    0.421591    0.421026     0.005394
PD2084   PD        0.226749    0.452731    0.456508     0.005394
PD2085   PD        0.264098    0.417950    0.454799     0.005394
PD2086   PD        0.263314    0.451545    0.422066     0.005394
PD2087   PD        0.302019    0.417520    0.421474     0.005394
PD2088   PD        0.302737    0.450498    0.456954     0.005394
PD2089   PD        0.338561    0.417118    0.454400     0.005394
PD2090   PD        0.339183    0.450710    0.418752     0.005394
PD2091   PD        0.373483    0.416413    0.420386     0.005394
PD2092   PD        0.375652    0.450935    0.455111     0.005394
PD2093   PD        0.410485    0.419432    0.453185     0.005394
PD2094   PD        0.411856    0.448626    0.416294     0.005394
PD2095   PD        0.447878    0.414737    0.420813     0.005394
PD2096   PD        0.448550    0.451130    0.451426     0.005394
PD2097   PD        0.484061    0.416023    0.450633     0.005394
PD2098   PD        0.486123    0.451028    0.417247     0.005394
PD2099   PD        0.522281    0.414769    0.420122     0.005394
PD2100   PD        0.521880    0.448005    0.455509     0.005394
PD2101   PD        0.558494    0.414131    0.451918     0.005394
PD2102   PD        0.558520    0.448759    0.419288     0.005394
PD2103   PD        0.598427    0.414697    0.418373     0.005394
PD2104   PD        0.597238    0.448268    0.452554     0.005394
PD2105   PD        0.634086    0.414794    0.450914     0.005394
PD2106   PD        0.633966    0.448827    0.417583     0.005394
PD2107   PD        0.673198    0.415284    0.418945     0.005394
PD2108   PD        0.668954    0.448351    0.452719     0.005394
PD2109   PD        0.705059    0.413653    0.452591     0.005394
PD2110   PD        0.706402    0.447746    0.418009     0.005394
PD2111   PD        0.743762    0.413085    0.419437     0.005394
PD2112   PD        0.743750    0.447874    0.452738     0.005394
PD2113   PD        0.780238    0.413413    0.451848     0.005394
NI2114   NI        0.781730    0.447875    0.419052     0.004307
PD2115   PD        0.816828    0.414671    0.420157     0.005394
PD2116   PD        0.815985    0.447276    0.453213     0.005394
NI2117   NI        0.853113    0.414733    0.453009     0.004307
NI2118   NI        0.853874    0.448232    0.419275     0.004307
NI2119   NI        0.893436    0.415245    0.419970     0.004307
NI2120   NI        0.888025    0.446332    0.452835     0.004307
NI2121   NI        0.014466    0.486311    0.416140     0.004307
NI2122   NI        0.045044    0.484750    0.454858     0.004307
NI2123   NI        0.047097    0.550068    0.385294     0.004307
NI2124   NI        0.085222    0.485172    0.422124     0.004307
NI2125   NI        0.081512    0.518767    0.454009     0.004307
PD2126   PD        0.121602    0.484882    0.454828     0.005394
PD2127   PD        0.116638    0.521390    0.421409     0.005394
PD2128   PD        0.153846    0.486456    0.423156     0.005394
PD2129   PD        0.153674    0.522357    0.456300     0.005394
PD2130   PD        0.190743    0.487207    0.454928     0.005394
PD2131   PD        0.191855    0.516843    0.418511     0.005394
PD2132   PD        0.227311    0.487480    0.421179     0.005394
PD2133   PD        0.226511    0.522121    0.457146     0.005394
PD2134   PD        0.263327    0.487195    0.455287     0.005394
PD2135   PD        0.262500    0.521539    0.422370     0.005394
PD2136   PD        0.300392    0.486564    0.419515     0.005394
PD2137   PD        0.299931    0.520047    0.453010     0.005394
PD2138   PD        0.338444    0.484213    0.454023     0.005394
PD2139   PD        0.337941    0.519160    0.421740     0.005394
PD2140   PD        0.374306    0.485546    0.420450     0.005394
PD2141   PD        0.375335    0.519758    0.453857     0.005394
PD2142   PD        0.411438    0.485732    0.454747     0.005394
PD2143   PD        0.411622    0.519800    0.418942     0.005394
PD2144   PD        0.448275    0.482495    0.417976     0.005394
PD2145   PD        0.469447    0.535691    0.448241     0.005394
PD2146   PD        0.485123    0.482600    0.452539     0.005394
PD2147   PD        0.487062    0.517481    0.419107     0.005394
PD2148   PD        0.521987    0.482757    0.417877     0.005394
PD2149   PD        0.519627    0.516213    0.447887     0.005394
PD2150   PD        0.558393    0.483166    0.451897     0.005394
PD2151   PD        0.560209    0.518757    0.417585     0.005394
PD2152   PD        0.612405    0.468175    0.424616     0.005394
PD2153   PD        0.626761    0.529952    0.464782     0.005394
PD2154   PD        0.633503    0.483295    0.454384     0.005394
PD2155   PD        0.634256    0.515324    0.419863     0.005394
PD2156   PD        0.670758    0.482654    0.418620     0.005394
PD2157   PD        0.670068    0.518581    0.451867     0.005394
PD2158   PD        0.738144    0.483209    0.479436     0.005394
PD2159   PD        0.706576    0.517852    0.418784     0.005394
PD2160   PD        0.745553    0.481404    0.419528     0.005394
PD2161   PD        0.744574    0.516242    0.453590     0.005394
PD2162   PD        0.781796    0.482384    0.453173     0.005394
PD2163   PD        0.783832    0.516283    0.419052     0.005394
PD2164   PD        0.818717    0.483836    0.421229     0.005394
NI2165   NI        0.818473    0.515996    0.452934     0.004307
NI2166   NI        0.854040    0.483042    0.452988     0.004307
NI2167   NI        0.854084    0.517123    0.418195     0.004307
NI2168   NI        0.887443    0.482438    0.422144     0.004307
NI2169   NI        0.045528    0.553734    0.456293     0.004307
NI2170   NI        0.015883    0.550392    0.418179     0.004307
NI2171   NI        0.081515    0.551704    0.421697     0.004307
NI2172   NI        0.082924    0.586862    0.454390     0.004307
NI2173   NI        0.117426    0.551520    0.457254     0.004307
NI2174   NI        0.161950    0.586572    0.391280     0.004307
NI2175   NI        0.159006    0.519195    0.446594     0.004307
PD2176   PD        0.153545    0.590499    0.456114     0.005394
PD2177   PD        0.189766    0.556098    0.455605     0.005394
PD2178   PD        0.191013    0.590367    0.421773     0.005394
PD2179   PD        0.211649    0.531660    0.426415     0.005394
PD2180   PD        0.226754    0.589215    0.454369     0.005394
PD2181   PD        0.265720    0.554543    0.454626     0.005394
PD2182   PD        0.263854    0.589902    0.420200     0.005394
PD2183   PD        0.299622    0.554541    0.420282     0.005394
PD2184   PD        0.300263    0.589308    0.453337     0.005394
PD2185   PD        0.338069    0.554262    0.453941     0.005394
PD2186   PD        0.337256    0.588325    0.418907     0.005394
PD2187   PD        0.372409    0.581040    0.389797     0.005394
PD2188   PD        0.375171    0.589136    0.454848     0.005394
PD2189   PD        0.413435    0.552869    0.452882     0.005394
PD2190   PD        0.413410    0.587024    0.419372     0.005394
PD2191   PD        0.448380    0.552177    0.417188     0.005394
PD2192   PD        0.449183    0.589793    0.452978     0.005394
PD2193   PD        0.467443    0.581468    0.443570     0.005394
PD2194   PD        0.486718    0.586953    0.418349     0.005394
PD2195   PD        0.552231    0.579174    0.419781     0.005394
PD2196   PD        0.544958    0.597957    0.462574     0.005394
PD2197   PD        0.559941    0.552020    0.453500     0.005394
PD2198   PD        0.559843    0.585819    0.417357     0.005394
PD2199   PD        0.598689    0.552638    0.417113     0.005394
PD2200   PD        0.593948    0.585960    0.450466     0.005394
PD2201   PD        0.640860    0.566893    0.439828     0.005394
PD2202   PD        0.633939    0.586080    0.417888     0.005394
PD2203   PD        0.670204    0.551934    0.417317     0.005394
NI2204   NI        0.677868    0.620167    0.453303     0.004307
PD2205   PD        0.707793    0.550887    0.451551     0.005394
PD2206   PD        0.709598    0.621291    0.383168     0.005394
PD2207   PD        0.744976    0.550836    0.419715     0.005394
PD2208   PD        0.745681    0.585569    0.452002     0.005394
PD2209   PD        0.781735    0.552461    0.452300     0.005394
PD2210   PD        0.783063    0.586112    0.417465     0.005394
NI2211   NI        0.811302    0.519151    0.447873     0.004307
NI2212   NI        0.818608    0.586883    0.451464     0.004307
NI2213   NI        0.853622    0.551010    0.451551     0.004307
NI2214   NI        0.806588    0.553720    0.414258     0.004307
NI2215   NI        0.082001    0.618287    0.419227     0.004307
NI2216   NI        0.082295    0.656446    0.452717     0.004307
NI2217   NI        0.118355    0.622742    0.453538     0.004307
NI2218   NI        0.158620    0.655203    0.384804     0.004307
PD2219   PD        0.155173    0.622969    0.418420     0.005394
NI2220   NI        0.156920    0.652219    0.444688     0.004307
PD2221   PD        0.189904    0.624446    0.455004     0.005394
NI2222   NI        0.182768    0.668007    0.395532     0.004307
PD2223   PD        0.227670    0.624138    0.420966     0.005394
PD2224   PD        0.227205    0.658079    0.453467     0.005394
PD2225   PD        0.265214    0.623732    0.453234     0.005394
PD2226   PD        0.264580    0.655946    0.418788     0.005394
PD2227   PD        0.302093    0.621268    0.419583     0.005394
PD2228   PD        0.301197    0.658271    0.454791     0.005394
PD2229   PD        0.339390    0.622497    0.453988     0.005394
PD2230   PD        0.338790    0.655778    0.419624     0.005394
PD2231   PD        0.375856    0.621480    0.418595     0.005394
PD2232   PD        0.375519    0.656854    0.453295     0.005394
PD2233   PD        0.412214    0.621273    0.453232     0.005394
PD2234   PD        0.412693    0.658410    0.419872     0.005394
PD2235   PD        0.451438    0.619281    0.419900     0.005394
PD2236   PD        0.416911    0.646872    0.485394     0.005394
PD2237   PD        0.486891    0.622356    0.453205     0.005394
PD2238   PD        0.488242    0.652937    0.418413     0.005394
PD2239   PD        0.523194    0.619890    0.418766     0.005394
PD2240   PD        0.522952    0.656613    0.452918     0.005394
PD2241   PD        0.551945    0.638852    0.446407     0.005394
PD2242   PD        0.559493    0.653644    0.416473     0.005394
PD2243   PD        0.596428    0.619574    0.418328     0.005394
PD2244   PD        0.598106    0.656128    0.452006     0.005394
PD2245   PD        0.638171    0.623210    0.447771     0.005394
PD2246   PD        0.633140    0.654227    0.416690     0.005394
NI2247   NI        0.680612    0.638980    0.426063     0.004307
NI2248   NI        0.683646    0.635773    0.459010     0.004307
NI2249   NI        0.725271    0.621146    0.436656     0.004307
PD2250   PD        0.708512    0.654602    0.415026     0.005394
PD2251   PD        0.745579    0.619154    0.419216     0.005394
NI2252   NI        0.746356    0.651877    0.451534     0.004307
NI2253   NI        0.782246    0.622262    0.452779     0.004307
NI2254   NI        0.782457    0.653605    0.416431     0.004307
NI2255   NI        0.816827    0.620786    0.419695     0.004307
NI2256   NI        0.818570    0.652523    0.452803     0.004307
NI2257   NI        0.118835    0.692536    0.454279     0.004307
NI2258   NI        0.154045    0.692614    0.420282     0.004307
NI2259   NI        0.154680    0.727926    0.453218     0.004307
NI2260   NI        0.190751    0.691547    0.453526     0.004307
NI2261   NI        0.191835    0.725432    0.418665     0.004307
PD2262   PD        0.228056    0.691751    0.418599     0.005394
NI2263   NI        0.229066    0.724221    0.452267     0.004307
PD2264   PD        0.264406    0.692009    0.452124     0.005394
PD2265   PD        0.264884    0.725670    0.418673     0.005394
PD2266   PD        0.301845    0.691017    0.420079     0.005394
PD2267   PD        0.301588    0.725587    0.453311     0.005394
PD2268   PD        0.373862    0.688942    0.418843     0.005394
NI2269   NI        0.342922    0.750244    0.391792     0.004307
NI2270   NI        0.387208    0.700475    0.392911     0.004307
PD2271   PD        0.377883    0.725767    0.450897     0.005394
PD2272   PD        0.411537    0.692360    0.451973     0.005394
PD2273   PD        0.414132    0.725233    0.418473     0.005394
PD2274   PD        0.448870    0.691717    0.417725     0.005394
PD2275   PD        0.449527    0.725948    0.452365     0.005394
PD2276   PD        0.484119    0.724152    0.487052     0.005394
PD2277   PD        0.486428    0.724806    0.416260     0.005394
PD2278   PD        0.523499    0.690768    0.417854     0.005394
PD2279   PD        0.524134    0.726195    0.450753     0.005394
PD2280   PD        0.561794    0.690305    0.452006     0.005394
PD2281   PD        0.560308    0.724415    0.418722     0.005394
PD2282   PD        0.597218    0.689925    0.419172     0.005394
PD2283   PD        0.595112    0.723387    0.452881     0.005394
PD2284   PD        0.633734    0.689764    0.452054     0.005394
NI2285   NI        0.642219    0.734839    0.390642     0.004307
PD2286   PD        0.670631    0.687775    0.419144     0.005394
NI2287   NI        0.707486    0.716713    0.476132     0.004307
NI2288   NI        0.736526    0.683972    0.465564     0.004307
NI2289   NI        0.709273    0.722978    0.417812     0.004307
NI2290   NI        0.742582    0.685122    0.419268     0.004307
NI2291   NI        0.746382    0.723302    0.449789     0.004307
NI2292   NI        0.780662    0.687646    0.448033     0.004307
NI2293   NI        0.190121    0.761107    0.451458     0.004307
NI2294   NI        0.230018    0.759950    0.416542     0.004307
NI2295   NI        0.264530    0.759926    0.451689     0.004307
NI2296   NI        0.265673    0.792286    0.416996     0.004307
NI2297   NI        0.302342    0.758605    0.418258     0.004307
NI2298   NI        0.262241    0.801333    0.453733     0.004307
PD2299   PD        0.338508    0.758059    0.452808     0.005394
NI2300   NI        0.338150    0.791301    0.418095     0.004307
NI2301   NI        0.375579    0.759172    0.418405     0.004307
NI2302   NI        0.378395    0.793713    0.450280     0.004307
PD2303   PD        0.413793    0.760402    0.450621     0.005394
NI2304   NI        0.414515    0.794096    0.417116     0.004307
PD2305   PD        0.450801    0.758784    0.417743     0.005394
NI2306   NI        0.449999    0.793418    0.450273     0.004307
PD2307   PD        0.486074    0.757943    0.450417     0.005394
NI2308   NI        0.486338    0.793137    0.416055     0.004307
PD2309   PD        0.522971    0.757600    0.417597     0.005394
NI2310   NI        0.553877    0.788803    0.421667     0.004307
NI2311   NI        0.562316    0.757598    0.450731     0.004307
NI2312   NI        0.561071    0.793649    0.415331     0.004307
NI2313   NI        0.603113    0.759181    0.391263     0.004307
NI2314   NI        0.598820    0.791944    0.450300     0.004307
NI2315   NI        0.634626    0.758472    0.449845     0.004307
NI2316   NI        0.646310    0.809263    0.387506     0.004307
NI2317   NI        0.674082    0.757322    0.415572     0.004307
NI2318   NI        0.710248    0.757505    0.450772     0.004307
NI2319   NI        0.373135    0.825181    0.417102     0.004307
NI2320   NI        0.435268    0.830938    0.441525     0.004307
NI2321   NI        0.449902    0.828831    0.417822     0.004307
NI2322   NI        0.487298    0.828219    0.448939     0.004307
NI2323   NI        0.524471    0.861891    0.449083     0.004307
NI2324   NI        0.230527    0.047331    0.519427     0.004307
NI2325   NI        0.307684    0.043482    0.515365     0.004307
NI2326   NI        0.346855    0.039005    0.485500     0.004307
NI2327   NI        0.374227    0.043314    0.520902     0.004307
NI2328   NI        0.428050    0.034060    0.504191     0.004307
NI2329   NI        0.453291    0.008632    0.481465     0.004307
NI2330   NI        0.450816    0.038754    0.518732     0.004307
NI2331   NI        0.489564    0.041084    0.484860     0.004307
NI2332   NI        0.533031    0.021937    0.496469     0.004307
NI2333   NI        0.562497    0.035830    0.485279     0.004307
NI2334   NI        0.598245    0.038275    0.520518     0.004307
NI2335   NI        0.637280    0.038877    0.486721     0.004307
NI2336   NI        0.165603    0.108985    0.453196     0.004307
NI2337   NI        0.231733    0.074427    0.484372     0.004307
NI2338   NI        0.230680    0.108734    0.518714     0.004307
NI2339   NI        0.268866    0.048020    0.486221     0.004307
NI2340   NI        0.267346    0.109537    0.484345     0.004307
NI2341   NI        0.304326    0.078579    0.485731     0.004307
NI2342   NI        0.303843    0.108694    0.518661     0.004307
NI2343   NI        0.341615    0.078825    0.517082     0.004307
NI2344   NI        0.336803    0.067073    0.487755     0.004307
NI2345   NI        0.386268    0.061792    0.493107     0.004307
PD2346   PD        0.377176    0.109783    0.518026     0.005394
NI2347   NI        0.413960    0.074353    0.517530     0.004307
NI2348   NI        0.414420    0.081913    0.513095     0.004307
NI2349   NI        0.459424    0.071251    0.497907     0.004307
PD2350   PD        0.452115    0.109489    0.519235     0.005394
NI2351   NI        0.488678    0.072862    0.519057     0.004307
NI2352   NI        0.496353    0.098449    0.506672     0.004307
NI2353   NI        0.526883    0.071862    0.485159     0.004307
NI2354   NI        0.490927    0.081914    0.520177     0.004307
NI2355   NI        0.562353    0.071668    0.518983     0.004307
PD2356   PD        0.563838    0.106363    0.486232     0.005394
NI2357   NI        0.600260    0.070348    0.485573     0.004307
NI2358   NI        0.600143    0.105673    0.520453     0.004307
NI2359   NI        0.636873    0.071047    0.519795     0.004307
NI2360   NI        0.638005    0.105757    0.486826     0.004307
NI2361   NI        0.674211    0.072189    0.484867     0.004307
NI2362   NI        0.673766    0.108050    0.520855     0.004307
NI2363   NI        0.712069    0.108418    0.485096     0.004307
NI2364   NI        0.115187    0.161398    0.497655     0.004307
NI2365   NI        0.162224    0.146763    0.480987     0.004307
NI2366   NI        0.158875    0.176768    0.517493     0.004307
NI2367   NI        0.194392    0.143038    0.516655     0.004307
PD2368   PD        0.199259    0.177372    0.484493     0.005394
NI2369   NI        0.205168    0.137447    0.462371     0.004307
PD2370   PD        0.231545    0.177394    0.517171     0.005394
NI2371   NI        0.266658    0.120706    0.490363     0.004307
PD2372   PD        0.268658    0.177521    0.484821     0.005394
PD2373   PD        0.304152    0.143420    0.484212     0.005394
NI2374   NI        0.270158    0.145045    0.515739     0.004307
PD2375   PD        0.341173    0.144187    0.519234     0.005394
PD2376   PD        0.342519    0.177052    0.481955     0.005394
PD2377   PD        0.377854    0.140773    0.484726     0.005394
NI2378   NI        0.372275    0.158981    0.529054     0.004307
PD2379   PD        0.415322    0.141551    0.517432     0.005394
PD2380   PD        0.416227    0.173677    0.483859     0.005394
PD2381   PD        0.452066    0.140657    0.483684     0.005394
PD2382   PD        0.451072    0.175719    0.518121     0.005394
PD2383   PD        0.489396    0.142301    0.519838     0.005394
PD2384   PD        0.490956    0.173179    0.484094     0.005394
PD2385   PD        0.528934    0.138670    0.485209     0.005394
PD2386   PD        0.526241    0.174179    0.519448     0.005394
PD2387   PD        0.563542    0.141062    0.518901     0.005394
PD2388   PD        0.561531    0.173744    0.483745     0.005394
PD2389   PD        0.601361    0.138218    0.485443     0.005394
PD2390   PD        0.600445    0.174541    0.520089     0.005394
NI2391   NI        0.655060    0.152016    0.525758     0.004307
PD2392   PD        0.637051    0.171229    0.486001     0.005394
NI2393   NI        0.672583    0.140812    0.485788     0.004307
NI2394   NI        0.673601    0.175229    0.519881     0.004307
NI2395   NI        0.710479    0.075107    0.519827     0.004307
NI2396   NI        0.710342    0.176323    0.485922     0.004307
NI2397   NI        0.746062    0.140197    0.487420     0.004307
NI2398   NI        0.744709    0.173453    0.520206     0.004307
NI2399   NI        0.784872    0.141858    0.521541     0.004307
NI2400   NI        0.059374    0.242517    0.482598     0.004307
NI2401   NI        0.089799    0.217514    0.484165     0.004307
NI2402   NI        0.091419    0.244578    0.520462     0.004307
NI2403   NI        0.128591    0.215231    0.519644     0.004307
NI2404   NI        0.126776    0.247637    0.485961     0.004307
PD2405   PD        0.165625    0.213894    0.486157     0.005394
NI2406   NI        0.156831    0.222446    0.533322     0.004307
NI2407   NI        0.200388    0.213608    0.517783     0.004307
NI2408   NI        0.200619    0.223613    0.470919     0.004307
PD2409   PD        0.234053    0.209697    0.483788     0.005394
PD2410   PD        0.233931    0.248226    0.518441     0.005394
PD2411   PD        0.268780    0.211228    0.519287     0.005394
PD2412   PD        0.269591    0.245046    0.484486     0.005394
PD2413   PD        0.306491    0.212657    0.484709     0.005394
PD2414   PD        0.305143    0.246522    0.517515     0.005394
PD2415   PD        0.341007    0.210793    0.517161     0.005394
PD2416   PD        0.344783    0.242446    0.483461     0.005394
PD2417   PD        0.379869    0.208382    0.484084     0.005394
PD2418   PD        0.381883    0.243395    0.518123     0.005394
PD2419   PD        0.414915    0.209090    0.519897     0.005394
PD2420   PD        0.414755    0.240805    0.484882     0.005394
PD2421   PD        0.452288    0.208813    0.483184     0.005394
PD2422   PD        0.449273    0.243914    0.519637     0.005394
PD2423   PD        0.489131    0.211031    0.517250     0.005394
PD2424   PD        0.486369    0.245039    0.486193     0.005394
PD2425   PD        0.537175    0.192450    0.472270     0.005394
PD2426   PD        0.522493    0.246295    0.526652     0.005394
PD2427   PD        0.560953    0.207839    0.519519     0.005394
PD2428   PD        0.561600    0.243410    0.485616     0.005394
PD2429   PD        0.577835    0.186420    0.510965     0.005394
PD2430   PD        0.598011    0.244236    0.519403     0.005394
PD2431   PD        0.634453    0.210098    0.517759     0.005394
PD2432   PD        0.631952    0.241823    0.481375     0.005394
PD2433   PD        0.672093    0.209010    0.486288     0.005394
NI2434   NI        0.663805    0.234781    0.539667     0.004307
NI2435   NI        0.709036    0.210591    0.517928     0.004307
PD2436   PD        0.705450    0.241338    0.487293     0.005394
NI2437   NI        0.746953    0.207482    0.485933     0.004307
PD2438   PD        0.742953    0.241302    0.519989     0.005394
NI2439   NI        0.780583    0.209811    0.522081     0.004307
NI2440   NI        0.810426    0.275710    0.486338     0.004307
NI2441   NI        0.817791    0.207125    0.485351     0.004307
NI2442   NI        0.785901    0.224913    0.511472     0.004307
NI2443   NI        0.893811    0.249064    0.450482     0.004307
NI2444   NI        0.020368    0.310607    0.526128     0.004307
NI2445   NI        0.043274    0.305854    0.464379     0.004307
NI2446   NI        0.057113    0.251718    0.489628     0.004307
NI2447   NI        0.054658    0.345757    0.526245     0.004307
NI2448   NI        0.126012    0.280467    0.517048     0.004307
PD2449   PD        0.125934    0.314420    0.484958     0.005394
PD2450   PD        0.161895    0.281586    0.484514     0.005394
PD2451   PD        0.165213    0.316079    0.518426     0.005394
PD2452   PD        0.198048    0.279531    0.525537     0.005394
PD2453   PD        0.195303    0.314984    0.481840     0.005394
PD2454   PD        0.235337    0.284942    0.485825     0.005394
PD2455   PD        0.201783    0.285866    0.516579     0.005394
PD2456   PD        0.271665    0.282611    0.518519     0.005394
PD2457   PD        0.244510    0.305501    0.466362     0.005394
PD2458   PD        0.306253    0.276351    0.483827     0.005394
PD2459   PD        0.305397    0.316433    0.517435     0.005394
PD2460   PD        0.340037    0.279436    0.516891     0.005394
PD2461   PD        0.375772    0.305046    0.510710     0.005394
PD2462   PD        0.378561    0.277003    0.484823     0.005394
PD2463   PD        0.378792    0.313339    0.517633     0.005394
PD2464   PD        0.414839    0.279539    0.517948     0.005394
PD2465   PD        0.413697    0.311042    0.482867     0.005394
PD2466   PD        0.454414    0.276999    0.486411     0.005394
PD2467   PD        0.457930    0.304643    0.535885     0.005394
PD2468   PD        0.487850    0.278259    0.519403     0.005394
PD2469   PD        0.455342    0.294030    0.492129     0.005394
PD2470   PD        0.549392    0.275503    0.502277     0.005394
PD2471   PD        0.524212    0.312888    0.519290     0.005394
PD2472   PD        0.562408    0.277255    0.521190     0.005394
PD2473   PD        0.562662    0.312597    0.485096     0.005394
PD2474   PD        0.597544    0.277640    0.488179     0.005394
PD2475   PD        0.595606    0.310625    0.520381     0.005394
PD2476   PD        0.632511    0.277338    0.520684     0.005394
PD2477   PD        0.634825    0.310671    0.488130     0.005394
PD2478   PD        0.668744    0.275788    0.485689     0.005394
PD2479   PD        0.668064    0.310407    0.520309     0.005394
NI2480   NI        0.698408    0.288541    0.570373     0.004307
PD2481   PD        0.705616    0.310890    0.487552     0.005394
PD2482   PD        0.739325    0.275116    0.486678     0.005394
NI2483   NI        0.772107    0.344795    0.515999     0.004307
NI2484   NI        0.803163    0.269420    0.499146     0.004307
NI2485   NI        0.814404    0.285724    0.478436     0.004307
NI2486   NI        0.821507    0.278544    0.487258     0.004307
NI2487   NI        0.812614    0.310860    0.516929     0.004307
NI2488   NI        0.855454    0.316401    0.549777     0.004307
NI2489   NI        0.856621    0.312934    0.487728     0.004307
NI2490   NI        0.034136    0.370775    0.531323     0.004307
NI2491   NI        0.050795    0.381383    0.489406     0.004307
NI2492   NI        0.090512    0.349353    0.486793     0.004307
NI2493   NI        0.087480    0.381139    0.521469     0.004307
NI2494   NI        0.128447    0.349041    0.520846     0.004307
NI2495   NI        0.132120    0.377869    0.489865     0.004307
PD2496   PD        0.161073    0.343718    0.486038     0.005394
PD2497   PD        0.160494    0.379359    0.522389     0.005394
PD2498   PD        0.201377    0.351692    0.524458     0.005394
PD2499   PD        0.188421    0.383197    0.488625     0.005394
PD2500   PD        0.206343    0.321165    0.490268     0.005394
PD2501   PD        0.262350    0.404608    0.519382     0.005394
PD2502   PD        0.255772    0.323527    0.506815     0.005394
PD2503   PD        0.270415    0.382184    0.482676     0.005394
PD2504   PD        0.309830    0.347525    0.482021     0.005394
PD2505   PD        0.273983    0.381786    0.554746     0.005394
PD2506   PD        0.341522    0.348951    0.521154     0.005394
PD2507   PD        0.338530    0.381201    0.487294     0.005394
PD2508   PD        0.375138    0.349138    0.483932     0.005394
PD2509   PD        0.374569    0.383951    0.520514     0.005394
PD2510   PD        0.411247    0.362893    0.496390     0.005394
PD2511   PD        0.412014    0.384922    0.485135     0.005394
PD2512   PD        0.449359    0.348494    0.484162     0.005394
PD2513   PD        0.446946    0.381610    0.520292     0.005394
PD2514   PD        0.480641    0.344294    0.519884     0.005394
PD2515   PD        0.483451    0.382089    0.486215     0.005394
PD2516   PD        0.522881    0.345627    0.486037     0.005394
PD2517   PD        0.549496    0.404374    0.512854     0.005394
PD2518   PD        0.560597    0.346254    0.518672     0.005394
PD2519   PD        0.559953    0.381227    0.485341     0.005394
PD2520   PD        0.597809    0.345559    0.488457     0.005394
PD2521   PD        0.595495    0.381282    0.522311     0.005394
PD2522   PD        0.635066    0.345370    0.520561     0.005394
PD2523   PD        0.630585    0.379595    0.486559     0.005394
PD2524   PD        0.645912    0.341445    0.471606     0.005394
PD2525   PD        0.672231    0.381270    0.522647     0.005394
PD2526   PD        0.707594    0.345950    0.520152     0.005394
PD2527   PD        0.706785    0.380958    0.486563     0.005394
PD2528   PD        0.742205    0.346014    0.484883     0.005394
PD2529   PD        0.743698    0.380098    0.519041     0.005394
NI2530   NI        0.780399    0.347984    0.520327     0.004307
PD2531   PD        0.781045    0.379125    0.486100     0.005394
NI2532   NI        0.814073    0.345047    0.485263     0.004307
NI2533   NI        0.816591    0.379756    0.519969     0.004307
NI2534   NI        0.849156    0.344370    0.516570     0.004307
NI2535   NI        0.849277    0.381731    0.487103     0.004307
NI2536   NI        0.000769    0.373068    0.499306     0.004307
NI2537   NI        0.048969    0.414474    0.525093     0.004307
NI2538   NI        0.041176    0.464653    0.462747     0.004307
NI2539   NI        0.059414    0.430256    0.483669     0.004307
NI2540   NI        0.070119    0.443015    0.500674     0.004307
NI2541   NI        0.091315    0.447678    0.525439     0.004307
PD2542   PD        0.116606    0.452527    0.491150     0.005394
PD2543   PD        0.155547    0.415579    0.486913     0.005394
PD2544   PD        0.204192    0.449187    0.486329     0.005394
PD2545   PD        0.202391    0.415089    0.513704     0.005394
PD2546   PD        0.188736    0.453460    0.489408     0.005394
PD2547   PD        0.240032    0.417654    0.480816     0.005394
PD2548   PD        0.236130    0.447291    0.522395     0.005394
PD2549   PD        0.272771    0.413162    0.520720     0.005394
PD2550   PD        0.244006    0.448507    0.513932     0.005394
PD2551   PD        0.303683    0.416178    0.486991     0.005394
PD2552   PD        0.301914    0.452421    0.520216     0.005394
PD2553   PD        0.377306    0.423485    0.489018     0.005394
PD2554   PD        0.338069    0.450221    0.490033     0.005394
PD2555   PD        0.372809    0.415726    0.487424     0.005394
PD2556   PD        0.375984    0.451882    0.519835     0.005394
PD2557   PD        0.411259    0.416590    0.519984     0.005394
PD2558   PD        0.414391    0.450992    0.486642     0.005394
PD2559   PD        0.447248    0.415910    0.486544     0.005394
PD2560   PD        0.447506    0.450904    0.521530     0.005394
PD2561   PD        0.484313    0.415771    0.521345     0.005394
PD2562   PD        0.483408    0.449681    0.487744     0.005394
PD2563   PD        0.586657    0.422714    0.486637     0.005394
PD2564   PD        0.517669    0.451082    0.520121     0.005394
PD2565   PD        0.561176    0.415781    0.521966     0.005394
PD2566   PD        0.557932    0.443389    0.486229     0.005394
PD2567   PD        0.594392    0.413968    0.487191     0.005394
PD2568   PD        0.598362    0.451019    0.520892     0.005394
PD2569   PD        0.631699    0.412718    0.520859     0.005394
PD2570   PD        0.633664    0.448305    0.487090     0.005394
PD2571   PD        0.669273    0.413457    0.486621     0.005394
PD2572   PD        0.667198    0.448093    0.520800     0.005394
NI2573   NI        0.733194    0.405536    0.528790     0.004307
PD2574   PD        0.706736    0.448317    0.486425     0.005394
NI2575   NI        0.773333    0.412949    0.515071     0.004307
PD2576   PD        0.744018    0.447692    0.522195     0.005394
PD2577   PD        0.780226    0.415006    0.520876     0.005394
PD2578   PD        0.779380    0.447313    0.487167     0.005394
PD2579   PD        0.815574    0.413676    0.485049     0.005394
NI2580   NI        0.813284    0.445732    0.517307     0.004307
NI2581   NI        0.848710    0.411380    0.518887     0.004307
NI2582   NI        0.851884    0.445145    0.485602     0.004307
NI2583   NI        0.889228    0.413401    0.490593     0.004307
NI2584   NI        0.053729    0.485286    0.523018     0.004307
NI2585   NI        0.044707    0.519281    0.488547     0.004307
NI2586   NI        0.084569    0.457892    0.459193     0.004307
NI2587   NI        0.082465    0.522481    0.522324     0.004307
NI2588   NI        0.117965    0.487404    0.524572     0.004307
PD2589   PD        0.118331    0.520960    0.488645     0.005394
PD2590   PD        0.154657    0.486368    0.490586     0.005394
PD2591   PD        0.154951    0.520103    0.524053     0.005394
PD2592   PD        0.190020    0.487876    0.525925     0.005394
PD2593   PD        0.190469    0.521194    0.487955     0.005394
PD2594   PD        0.226091    0.489032    0.490055     0.005394
PD2595   PD        0.227389    0.522731    0.522248     0.005394
PD2596   PD        0.264673    0.487287    0.524262     0.005394
PD2597   PD        0.264044    0.520194    0.490093     0.005394
PD2598   PD        0.300743    0.486706    0.488306     0.005394
PD2599   PD        0.293149    0.513086    0.489409     0.005394
PD2600   PD        0.335526    0.506358    0.513303     0.005394
PD2601   PD        0.340796    0.522213    0.486456     0.005394
PD2602   PD        0.373413    0.486667    0.488778     0.005394
PD2603   PD        0.374576    0.519993    0.522521     0.005394
PD2604   PD        0.413002    0.485737    0.520969     0.005394
PD2605   PD        0.411763    0.517990    0.488599     0.005394
PD2606   PD        0.448141    0.484380    0.486690     0.005394
PD2607   PD        0.450402    0.519584    0.522199     0.005394
PD2608   PD        0.485753    0.484811    0.522283     0.005394
PD2609   PD        0.486656    0.519504    0.488055     0.005394
PD2610   PD        0.521992    0.483826    0.485753     0.005394
PD2611   PD        0.524058    0.519024    0.522176     0.005394
PD2612   PD        0.560638    0.484602    0.521963     0.005394
PD2613   PD        0.555188    0.485126    0.510268     0.005394
PD2614   PD        0.597095    0.483089    0.486199     0.005394
PD2615   PD        0.591259    0.496747    0.531916     0.005394
PD2616   PD        0.635366    0.483684    0.520751     0.005394
PD2617   PD        0.633955    0.516100    0.489132     0.005394
PD2618   PD        0.670664    0.483495    0.487570     0.005394
PD2619   PD        0.672038    0.518134    0.521144     0.005394
PD2620   PD        0.707210    0.482202    0.520028     0.005394
PD2621   PD        0.706287    0.519102    0.485768     0.005394
PD2622   PD        0.745849    0.484549    0.488219     0.005394
PD2623   PD        0.742078    0.515662    0.524084     0.005394
PD2624   PD        0.779975    0.482590    0.521067     0.005394
NI2625   NI        0.815436    0.548186    0.486767     0.004307
NI2626   NI        0.818091    0.481972    0.487321     0.004307
NI2627   NI        0.817093    0.518376    0.521816     0.004307
NI2628   NI        0.867241    0.488066    0.497607     0.004307
NI2629   NI        0.854565    0.517140    0.487978     0.004307
NI2630   NI        0.038168    0.540405    0.540784     0.004307
NI2631   NI        0.052809    0.587285    0.488974     0.004307
NI2632   NI        0.082576    0.554557    0.489612     0.004307
NI2633   NI        0.079507    0.590761    0.523128     0.004307
PD2634   PD        0.119230    0.554537    0.524806     0.005394
NI2635   NI        0.119060    0.590348    0.489058     0.004307
PD2636   PD        0.154370    0.555267    0.490580     0.005394
PD2637   PD        0.153412    0.589189    0.522203     0.005394
PD2638   PD        0.190632    0.555349    0.525760     0.005394
NI2639   NI        0.194247    0.616880    0.457517     0.004307
PD2640   PD        0.226299    0.556582    0.489720     0.005394
PD2641   PD        0.227976    0.591495    0.523273     0.005394
PD2642   PD        0.264615    0.556529    0.524487     0.005394
PD2643   PD        0.263772    0.588289    0.487984     0.005394
PD2644   PD        0.300455    0.557177    0.488807     0.005394
PD2645   PD        0.301762    0.591264    0.523459     0.005394
PD2646   PD        0.360159    0.544260    0.526767     0.005394
PD2647   PD        0.339266    0.590858    0.489433     0.005394
PD2648   PD        0.374572    0.556502    0.487401     0.005394
PD2649   PD        0.374827    0.589823    0.523541     0.005394
PD2650   PD        0.405041    0.567449    0.546530     0.005394
PD2651   PD        0.423455    0.609943    0.454799     0.005394
PD2652   PD        0.444977    0.557654    0.482276     0.005394
PD2653   PD        0.448998    0.589179    0.521173     0.005394
PD2654   PD        0.487591    0.553099    0.522852     0.005394
PD2655   PD        0.485411    0.590175    0.487312     0.005394
PD2656   PD        0.513967    0.562778    0.508926     0.005394
PD2657   PD        0.528219    0.607175    0.507397     0.005394
PD2658   PD        0.560617    0.553319    0.523883     0.005394
PD2659   PD        0.562395    0.587849    0.486220     0.005394
PD2660   PD        0.596074    0.551601    0.487442     0.005394
PD2661   PD        0.598801    0.588162    0.520596     0.005394
PD2662   PD        0.634770    0.552959    0.522186     0.005394
PD2663   PD        0.631328    0.620195    0.453302     0.005394
PD2664   PD        0.668794    0.550653    0.485142     0.005394
PD2665   PD        0.671277    0.586558    0.521317     0.005394
PD2666   PD        0.707489    0.551365    0.519737     0.005394
NI2667   NI        0.706135    0.598858    0.484014     0.004307
PD2668   PD        0.744877    0.550532    0.488180     0.005394
PD2669   PD        0.745233    0.585957    0.520100     0.005394
NI2670   NI        0.782536    0.552303    0.521048     0.004307
NI2671   NI        0.820011    0.585275    0.521405     0.004307
NI2672   NI        0.821343    0.554207    0.483062     0.004307
NI2673   NI        0.809986    0.587864    0.590379     0.004307
NI2674   NI        0.885941    0.543566    0.557087     0.004307
NI2675   NI        0.855320    0.585045    0.487656     0.004307
NI2676   NI        0.083834    0.623948    0.489913     0.004307
NI2677   NI        0.088462    0.587895    0.524502     0.004307
NI2678   NI        0.116373    0.658603    0.488669     0.004307
NI2679   NI        0.156629    0.620961    0.487689     0.004307
NI2680   NI        0.153993    0.658529    0.522909     0.004307
NI2681   NI        0.185890    0.611144    0.500800     0.004307
PD2682   PD        0.191930    0.658446    0.489397     0.005394
PD2683   PD        0.228343    0.624285    0.487726     0.005394
PD2684   PD        0.229457    0.658026    0.523764     0.005394
PD2685   PD        0.273370    0.566302    0.523885     0.005394
NI2686   NI        0.232696    0.688000    0.488284     0.004307
PD2687   PD        0.301249    0.622958    0.486792     0.005394
PD2688   PD        0.301397    0.658048    0.521584     0.005394
PD2689   PD        0.337695    0.623514    0.522476     0.005394
PD2690   PD        0.339087    0.656038    0.487608     0.005394
PD2691   PD        0.374956    0.624310    0.486918     0.005394
PD2692   PD        0.342865    0.685644    0.515959     0.005394
PD2693   PD        0.412041    0.623420    0.523351     0.005394
PD2694   PD        0.413816    0.659165    0.487503     0.005394
PD2695   PD        0.451802    0.624076    0.488088     0.005394
PD2696   PD        0.448955    0.656835    0.521272     0.005394
PD2697   PD        0.486223    0.625444    0.522369     0.005394
PD2698   PD        0.486893    0.658590    0.486893     0.005394
PD2699   PD        0.560138    0.658631    0.486876     0.005394
PD2700   PD        0.523115    0.657292    0.521795     0.005394
PD2701   PD        0.562005    0.623811    0.520807     0.005394
NI2702   NI        0.555035    0.673658    0.473245     0.004307
PD2703   PD        0.598646    0.620623    0.485227     0.005394
PD2704   PD        0.598643    0.657547    0.521703     0.005394
PD2705   PD        0.635706    0.621099    0.522958     0.005394
NI2706   NI        0.611057    0.659890    0.455547     0.004307
NI2707   NI        0.684222    0.631299    0.469024     0.004307
PD2708   PD        0.670930    0.656811    0.521071     0.005394
NI2709   NI        0.708520    0.621055    0.519144     0.004307
NI2710   NI        0.707376    0.654325    0.486485     0.004307
PD2711   PD        0.747213    0.619360    0.485183     0.005394
NI2712   NI        0.745049    0.656771    0.515816     0.004307
NI2713   NI        0.783796    0.620764    0.518604     0.004307
NI2714   NI        0.783405    0.654792    0.484652     0.004307
NI2715   NI        0.819286    0.617440    0.485686     0.004307
NI2716   NI        0.154151    0.692291    0.488658     0.004307
NI2717   NI        0.190887    0.693112    0.522775     0.004307
NI2718   NI        0.153992    0.761219    0.486015     0.004307
NI2719   NI        0.227153    0.695921    0.488869     0.004307
NI2720   NI        0.229082    0.725842    0.521747     0.004307
PD2721   PD        0.265935    0.692257    0.522734     0.005394
NI2722   NI        0.266756    0.724634    0.487854     0.004307
PD2723   PD        0.301817    0.693321    0.487859     0.005394
PD2724   PD        0.302090    0.727708    0.521394     0.005394
PD2725   PD        0.339029    0.693189    0.523796     0.005394
PD2726   PD        0.338490    0.726848    0.487208     0.005394
PD2727   PD        0.377023    0.693561    0.488906     0.005394
PD2728   PD        0.375018    0.726328    0.520685     0.005394
PD2729   PD        0.414131    0.692704    0.521765     0.005394
PD2730   PD        0.413464    0.726564    0.486697     0.005394
PD2731   PD        0.450224    0.692928    0.487828     0.005394
PD2732   PD        0.451424    0.726197    0.519985     0.005394
PD2733   PD        0.488262    0.692916    0.520567     0.005394
NI2734   NI        0.519549    0.716616    0.445038     0.004307
PD2735   PD        0.523260    0.691667    0.485890     0.005394
PD2736   PD        0.522802    0.727178    0.520063     0.005394
PD2737   PD        0.560672    0.690743    0.519332     0.005394
PD2738   PD        0.560660    0.724401    0.486060     0.005394
PD2739   PD        0.596534    0.689782    0.487787     0.005394
PD2740   PD        0.597879    0.725697    0.520690     0.005394
PD2741   PD        0.634838    0.692387    0.521191     0.005394
PD2742   PD        0.634642    0.725005    0.485291     0.005394
NI2743   NI        0.671166    0.689175    0.486449     0.004307
NI2744   NI        0.673407    0.758639    0.553744     0.004307
NI2745   NI        0.708486    0.690058    0.517356     0.004307
NI2746   NI        0.709410    0.723633    0.484844     0.004307
NI2747   NI        0.743883    0.688779    0.485608     0.004307
NI2748   NI        0.225270    0.755352    0.485544     0.004307
NI2749   NI        0.257912    0.768970    0.489524     0.004307
NI2750   NI        0.267800    0.795175    0.486496     0.004307
NI2751   NI        0.302765    0.761824    0.486023     0.004307
NI2752   NI        0.303453    0.794680    0.520680     0.004307
NI2753   NI        0.338421    0.760768    0.520742     0.004307
NI2754   NI        0.340734    0.794674    0.486223     0.004307
PD2755   PD        0.376591    0.760551    0.485751     0.005394
NI2756   NI        0.375141    0.788965    0.524013     0.004307
NI2757   NI        0.411625    0.760072    0.519245     0.004307
NI2758   NI        0.414051    0.793977    0.485831     0.004307
NI2759   NI        0.449407    0.760320    0.486422     0.004307
NI2760   NI        0.419047    0.821402    0.520990     0.004307
NI2761   NI        0.488165    0.760448    0.519753     0.004307
NI2762   NI        0.449277    0.828353    0.486158     0.004307
NI2763   NI        0.524992    0.758683    0.491513     0.004307
NI2764   NI        0.535935    0.764346    0.539502     0.004307
NI2765   NI        0.561822    0.759107    0.518937     0.004307
NI2766   NI        0.561835    0.793396    0.484838     0.004307
NI2767   NI        0.596963    0.759318    0.484223     0.004307
NI2768   NI        0.599951    0.828196    0.553267     0.004307
NI2769   NI        0.635558    0.759421    0.519876     0.004307
NI2770   NI        0.634282    0.793567    0.484438     0.004307
NI2771   NI        0.672799    0.723873    0.518344     0.004307
NI2772   NI        0.455318    0.818855    0.485321     0.004307
NI2773   NI        0.339486    0.042958    0.551327     0.004307
NI2774   NI        0.375748    0.044218    0.580159     0.004307
NI2775   NI        0.413291    0.043518    0.549181     0.004307
NI2776   NI        0.449552    0.041490    0.582757     0.004307
NI2777   NI        0.458527    0.027128    0.564694     0.004307
NI2778   NI        0.524549    0.040085    0.586095     0.004307
NI2779   NI        0.561814    0.038603    0.554893     0.004307
NI2780   NI        0.194785    0.109625    0.553151     0.004307
NI2781   NI        0.231267    0.108636    0.587343     0.004307
NI2782   NI        0.254182    0.057340    0.607955     0.004307
NI2783   NI        0.266592    0.111248    0.550924     0.004307
NI2784   NI        0.301714    0.075065    0.551369     0.004307
NI2785   NI        0.268834    0.113605    0.619477     0.004307
NI2786   NI        0.339845    0.074483    0.584302     0.004307
NI2787   NI        0.342131    0.109566    0.551342     0.004307
NI2788   NI        0.379121    0.076328    0.551566     0.004307
NI2789   NI        0.378377    0.109128    0.585881     0.004307
NI2790   NI        0.414045    0.073291    0.587958     0.004307
PD2791   PD        0.414416    0.108606    0.551183     0.005394
NI2792   NI        0.448649    0.074824    0.551173     0.004307
NI2793   NI        0.451923    0.108368    0.584540     0.004307
NI2794   NI        0.484892    0.073634    0.585202     0.004307
PD2795   PD        0.486713    0.107765    0.552109     0.005394
NI2796   NI        0.525018    0.075221    0.554914     0.004307
NI2797   NI        0.522806    0.107001    0.586991     0.004307
NI2798   NI        0.560432    0.073737    0.588205     0.004307
NI2799   NI        0.562828    0.106728    0.553344     0.004307
NI2800   NI        0.599777    0.072260    0.553604     0.004307
NI2801   NI        0.597873    0.105795    0.589911     0.004307
NI2802   NI        0.638051    0.075094    0.587687     0.004307
NI2803   NI        0.635865    0.104935    0.554227     0.004307
NI2804   NI        0.671643    0.109419    0.588428     0.004307
NI2805   NI        0.710883    0.105134    0.555254     0.004307
NI2806   NI        0.126387    0.177307    0.552490     0.004307
NI2807   NI        0.157605    0.142477    0.552238     0.004307
NI2808   NI        0.166540    0.150748    0.552969     0.004307
NI2809   NI        0.199164    0.146429    0.584663     0.004307
NI2810   NI        0.196076    0.186777    0.549153     0.004307
NI2811   NI        0.228487    0.145423    0.549566     0.004307
NI2812   NI        0.233386    0.177473    0.587501     0.004307
NI2813   NI        0.268946    0.143873    0.585704     0.004307
NI2814   NI        0.236681    0.141217    0.554303     0.004307
PD2815   PD        0.303132    0.144657    0.551126     0.005394
PD2816   PD        0.304173    0.177477    0.587004     0.005394
NI2817   NI        0.340404    0.144756    0.586175     0.004307
PD2818   PD        0.339913    0.179128    0.552531     0.005394
NI2819   NI        0.341390    0.144613    0.585636     0.004307
PD2820   PD        0.378281    0.178681    0.586177     0.005394
NI2821   NI        0.403362    0.148556    0.562872     0.004307
PD2822   PD        0.414936    0.178652    0.551951     0.005394
PD2823   PD        0.452713    0.143302    0.552213     0.005394
PD2824   PD        0.452013    0.177591    0.586347     0.005394
PD2825   PD        0.486835    0.142918    0.585871     0.005394
PD2826   PD        0.487168    0.177280    0.550470     0.005394
PD2827   PD        0.525038    0.141828    0.553891     0.005394
PD2828   PD        0.524754    0.176639    0.588047     0.005394
NI2829   NI        0.561244    0.141847    0.587875     0.004307
PD2830   PD        0.561863    0.175022    0.553028     0.005394
PD2831   PD        0.635664    0.177641    0.550576     0.005394
PD2832   PD        0.598965    0.176244    0.587089     0.005394
NI2833   NI        0.663292    0.158173    0.596963     0.004307
NI2834   NI        0.606883    0.161659    0.538114     0.004307
NI2835   NI        0.672091    0.141933    0.554922     0.004307
NI2836   NI        0.708440    0.146743    0.581841     0.004307
NI2837   NI        0.709337    0.140190    0.587831     0.004307
NI2838   NI        0.709955    0.175755    0.554414     0.004307
NI2839   NI        0.747459    0.140823    0.555885     0.004307
NI2840   NI        0.746323    0.175031    0.587120     0.004307
NI2841   NI        0.782939    0.174139    0.555482     0.004307
NI2842   NI        0.089371    0.242854    0.591345     0.004307
NI2843   NI        0.089022    0.242925    0.591944     0.004307
NI2844   NI        0.125442    0.248648    0.554113     0.004307
NI2845   NI        0.135724    0.186352    0.558219     0.004307
NI2846   NI        0.159959    0.247404    0.586620     0.004307
NI2847   NI        0.234295    0.179408    0.578979     0.004307
NI2848   NI        0.198696    0.248788    0.552087     0.004307
NI2849   NI        0.233733    0.213251    0.551813     0.004307
NI2850   NI        0.238647    0.275126    0.617083     0.004307
PD2851   PD        0.270649    0.211898    0.587494     0.005394
PD2852   PD        0.270585    0.246171    0.551966     0.005394
PD2853   PD        0.306197    0.212980    0.552768     0.005394
PD2854   PD        0.304996    0.245324    0.588471     0.005394
PD2855   PD        0.341517    0.211888    0.587355     0.005394
PD2856   PD        0.340669    0.248223    0.552745     0.005394
PD2857   PD        0.377255    0.212589    0.554449     0.005394
PD2858   PD        0.377821    0.247035    0.584992     0.005394
PD2859   PD        0.414678    0.211141    0.585923     0.005394
PD2860   PD        0.414744    0.245270    0.551482     0.005394
PD2861   PD        0.450583    0.210300    0.554017     0.005394
PD2862   PD        0.450057    0.245557    0.585466     0.005394
PD2863   PD        0.486887    0.209657    0.586878     0.005394
PD2864   PD        0.487575    0.244222    0.553488     0.005394
PD2865   PD        0.522620    0.210107    0.551743     0.005394
PD2866   PD        0.517373    0.273643    0.620717     0.005394
PD2867   PD        0.561922    0.211133    0.586984     0.005394
PD2868   PD        0.562852    0.242462    0.553093     0.005394
PD2869   PD        0.597505    0.207949    0.551954     0.005394
PD2870   PD        0.597222    0.244415    0.586968     0.005394
PD2871   PD        0.634747    0.211084    0.585613     0.005394
PD2872   PD        0.632805    0.243329    0.553194     0.005394
NI2873   NI        0.704840    0.210712    0.525988     0.004307
PD2874   PD        0.670414    0.242790    0.587532     0.005394
NI2875   NI        0.709009    0.209609    0.589413     0.004307
PD2876   PD        0.708767    0.244042    0.555903     0.005394
NI2877   NI        0.745214    0.208625    0.554426     0.004307
NI2878   NI        0.756084    0.246497    0.577658     0.004307
NI2879   NI        0.781275    0.209526    0.589741     0.004307
NI2880   NI        0.799355    0.256867    0.560113     0.004307
NI2881   NI        0.809313    0.248584    0.584722     0.004307
NI2882   NI        0.054664    0.309393    0.560101     0.004307
NI2883   NI        0.106491    0.270974    0.557043     0.004307
NI2884   NI        0.052779    0.316953    0.607919     0.004307
NI2885   NI        0.123991    0.280594    0.590607     0.004307
NI2886   NI        0.129136    0.314115    0.555992     0.004307
PD2887   PD        0.162141    0.284047    0.554190     0.005394
NI2888   NI        0.156535    0.311416    0.593099     0.004307
NI2889   NI        0.196456    0.282364    0.585303     0.004307
PD2890   PD        0.201420    0.317228    0.554114     0.005394
PD2891   PD        0.235004    0.280906    0.553597     0.005394
PD2892   PD        0.234602    0.311754    0.590782     0.005394
PD2893   PD        0.269624    0.280304    0.588379     0.005394
PD2894   PD        0.268671    0.314993    0.553276     0.005394
PD2895   PD        0.304013    0.279752    0.553826     0.005394
PD2896   PD        0.304778    0.314125    0.590381     0.005394
PD2897   PD        0.340291    0.279736    0.587360     0.005394
PD2898   PD        0.339597    0.315356    0.554232     0.005394
PD2899   PD        0.376854    0.279016    0.550219     0.005394
PD2900   PD        0.374268    0.314327    0.588250     0.005394
PD2901   PD        0.412574    0.278896    0.587804     0.005394
PD2902   PD        0.412717    0.311701    0.555336     0.005394
PD2903   PD        0.450064    0.278760    0.553794     0.005394
PD2904   PD        0.449575    0.313186    0.586350     0.005394
PD2905   PD        0.488895    0.279226    0.586549     0.005394
PD2906   PD        0.477714    0.324280    0.572748     0.005394
PD2907   PD        0.523915    0.242899    0.517969     0.005394
PD2908   PD        0.522033    0.312558    0.587800     0.005394
PD2909   PD        0.562644    0.279397    0.587610     0.005394
PD2910   PD        0.562277    0.315112    0.554022     0.005394
PD2911   PD        0.597181    0.278446    0.553038     0.005394
PD2912   PD        0.596108    0.311698    0.587910     0.005394
PD2913   PD        0.635815    0.278871    0.586319     0.005394
PD2914   PD        0.632532    0.310911    0.552891     0.005394
PD2915   PD        0.670351    0.275919    0.552931     0.005394
PD2916   PD        0.670313    0.313326    0.586754     0.005394
NI2917   NI        0.732281    0.271283    0.602247     0.004307
PD2918   PD        0.707652    0.311924    0.554001     0.005394
PD2919   PD        0.741523    0.280157    0.549990     0.005394
PD2920   PD        0.742757    0.311737    0.584945     0.005394
NI2921   NI        0.807573    0.316507    0.584580     0.004307
NI2922   NI        0.775947    0.310792    0.549968     0.004307
NI2923   NI        0.811538    0.280559    0.557740     0.004307
NI2924   NI        0.820277    0.311287    0.588170     0.004307
NI2925   NI        0.821928    0.335996    0.538938     0.004307
NI2926   NI        0.016844    0.376649    0.591745     0.004307
NI2927   NI        0.052658    0.381249    0.557383     0.004307
NI2928   NI        0.077050    0.337742    0.572229     0.004307
NI2929   NI        0.114669    0.380328    0.598037     0.004307
NI2930   NI        0.121120    0.336280    0.602879     0.004307
NI2931   NI        0.127710    0.379643    0.557743     0.004307
PD2932   PD        0.161056    0.348621    0.556854     0.005394
NI2933   NI        0.162115    0.346761    0.623701     0.004307
NI2934   NI        0.163346    0.315059    0.588173     0.004307
NI2935   NI        0.191954    0.362523    0.543830     0.004307
PD2936   PD        0.237060    0.350266    0.553479     0.005394
PD2937   PD        0.232124    0.385028    0.593776     0.005394
PD2938   PD        0.266896    0.349127    0.591486     0.005394
PD2939   PD        0.265256    0.385257    0.561175     0.005394
PD2940   PD        0.303170    0.346825    0.557037     0.005394
PD2941   PD        0.305422    0.381810    0.591157     0.005394
PD2942   PD        0.338377    0.348406    0.588984     0.005394
PD2943   PD        0.337554    0.384371    0.557178     0.005394
PD2944   PD        0.376491    0.347894    0.554737     0.005394
PD2945   PD        0.375660    0.381687    0.590211     0.005394
PD2946   PD        0.413769    0.348294    0.588884     0.005394
PD2947   PD        0.412358    0.383123    0.554880     0.005394
PD2948   PD        0.448002    0.348157    0.554987     0.005394
PD2949   PD        0.448245    0.383143    0.587694     0.005394
PD2950   PD        0.486236    0.347159    0.589721     0.005394
PD2951   PD        0.485763    0.382361    0.556103     0.005394
PD2952   PD        0.526875    0.350187    0.553797     0.005394
PD2953   PD        0.523355    0.381660    0.588997     0.005394
PD2954   PD        0.560639    0.346604    0.587877     0.005394
PD2955   PD        0.558356    0.381378    0.553481     0.005394
PD2956   PD        0.597251    0.346125    0.551300     0.005394
PD2957   PD        0.598519    0.381352    0.585525     0.005394
PD2958   PD        0.634402    0.344908    0.586787     0.005394
PD2959   PD        0.632895    0.379492    0.557093     0.005394
PD2960   PD        0.669535    0.347451    0.553559     0.005394
PD2961   PD        0.671617    0.381154    0.588370     0.005394
PD2962   PD        0.707601    0.346939    0.588729     0.005394
PD2963   PD        0.694511    0.385519    0.538323     0.005394
PD2964   PD        0.742653    0.345393    0.556241     0.005394
NI2965   NI        0.715906    0.360413    0.595428     0.004307
PD2966   PD        0.745139    0.381263    0.589291     0.005394
NI2967   NI        0.781908    0.376269    0.552605     0.004307
NI2968   NI        0.845001    0.312923    0.551911     0.004307
NI2969   NI        0.819005    0.382662    0.588980     0.004307
NI2970   NI        0.849110    0.346032    0.583765     0.004307
NI2971   NI        0.858226    0.410024    0.579664     0.004307
NI2972   NI        0.032481    0.403989    0.565297     0.004307
NI2973   NI        0.048118    0.450107    0.553772     0.004307
NI2974   NI        0.087584    0.416469    0.555201     0.004307
NI2975   NI        0.083425    0.450159    0.586726     0.004307
NI2976   NI        0.119794    0.415894    0.590168     0.004307
NI2977   NI        0.123928    0.448748    0.560385     0.004307
NI2978   NI        0.160489    0.415993    0.555605     0.004307
PD2979   PD        0.156942    0.453957    0.592485     0.005394
PD2980   PD        0.194007    0.420159    0.595139     0.005394
NI2981   NI        0.163959    0.484807    0.555215     0.004307
PD2982   PD        0.228818    0.418579    0.561085     0.005394
PD2983   PD        0.228132    0.454827    0.595077     0.005394
PD2984   PD        0.265902    0.421140    0.595616     0.005394
PD2985   PD        0.264891    0.451917    0.558861     0.005394
PD2986   PD        0.301481    0.419433    0.560459     0.005394
PD2987   PD        0.302488    0.451098    0.592345     0.005394
PD2988   PD        0.339471    0.416529    0.589961     0.005394
PD2989   PD        0.336727    0.451345    0.556704     0.005394
PD2990   PD        0.336347    0.416043    0.523566     0.005394
PD2991   PD        0.375612    0.452359    0.590539     0.005394
PD2992   PD        0.414005    0.417508    0.588891     0.005394
PD2993   PD        0.412204    0.449781    0.557530     0.005394
PD2994   PD        0.448030    0.416140    0.556486     0.005394
PD2995   PD        0.451195    0.452624    0.588029     0.005394
PD2996   PD        0.489610    0.417552    0.589601     0.005394
PD2997   PD        0.485366    0.451336    0.554346     0.005394
PD2998   PD        0.521905    0.415081    0.554983     0.005394
PD2999   PD        0.524501    0.452301    0.589075     0.005394
PD3000   PD        0.561890    0.418421    0.585604     0.005394
PD3001   PD        0.584881    0.463300    0.559630     0.005394
PD3002   PD        0.596829    0.415058    0.555653     0.005394
PD3003   PD        0.600015    0.451286    0.587038     0.005394
PD3004   PD        0.633456    0.415015    0.587525     0.005394
PD3005   PD        0.632667    0.448256    0.554886     0.005394
PD3006   PD        0.667308    0.415572    0.556291     0.005394
PD3007   PD        0.667684    0.449440    0.588025     0.005394
PD3008   PD        0.707462    0.413800    0.589346     0.005394
PD3009   PD        0.708290    0.449370    0.554067     0.005394
PD3010   PD        0.743930    0.412617    0.554387     0.005394
NI3011   NI        0.729209    0.457191    0.598323     0.004307
NI3012   NI        0.782147    0.414937    0.590220     0.004307
PD3013   PD        0.781560    0.448115    0.554039     0.005394
NI3014   NI        0.816513    0.413166    0.556015     0.004307
NI3015   NI        0.814278    0.448046    0.591510     0.004307
NI3016   NI        0.850185    0.417845    0.585755     0.004307
NI3017   NI        0.881206    0.446602    0.520765     0.004307
NI3018   NI        0.052081    0.485991    0.585715     0.004307
NI3019   NI        0.051396    0.520487    0.558247     0.004307
NI3020   NI        0.080990    0.484352    0.554924     0.004307
NI3021   NI        0.081947    0.521273    0.593987     0.004307
NI3022   NI        0.118334    0.486374    0.593633     0.004307
NI3023   NI        0.117188    0.522830    0.558611     0.004307
PD3024   PD        0.152672    0.488049    0.559585     0.005394
NI3025   NI        0.155025    0.497046    0.569372     0.004307
PD3026   PD        0.191138    0.489540    0.593758     0.005394
PD3027   PD        0.190460    0.522151    0.559322     0.005394
PD3028   PD        0.227069    0.487686    0.558538     0.005394
PD3029   PD        0.228091    0.523208    0.593430     0.005394
PD3030   PD        0.278850    0.467355    0.593552     0.005394
PD3031   PD        0.264780    0.521593    0.558609     0.005394
PD3032   PD        0.301585    0.486297    0.557444     0.005394
PD3033   PD        0.301818    0.519710    0.591750     0.005394
PD3034   PD        0.339860    0.486023    0.589654     0.005394
PD3035   PD        0.337126    0.522423    0.557954     0.005394
PD3036   PD        0.376989    0.487276    0.557855     0.005394
PD3037   PD        0.375316    0.522154    0.592127     0.005394
PD3038   PD        0.413390    0.487063    0.589382     0.005394
PD3039   PD        0.413595    0.521526    0.557382     0.005394
PD3040   PD        0.446419    0.477657    0.573852     0.005394
PD3041   PD        0.450603    0.520489    0.590870     0.005394
PD3042   PD        0.490780    0.484227    0.590040     0.005394
PD3043   PD        0.487006    0.520373    0.555660     0.005394
PD3044   PD        0.523623    0.487565    0.553475     0.005394
PD3045   PD        0.523791    0.517902    0.590939     0.005394
PD3046   PD        0.560931    0.485960    0.590138     0.005394
PD3047   PD        0.558633    0.519359    0.555659     0.005394
PD3048   PD        0.597124    0.485662    0.556171     0.005394
PD3049   PD        0.596296    0.520746    0.590571     0.005394
PD3050   PD        0.633357    0.486703    0.590957     0.005394
PD3051   PD        0.632487    0.518968    0.553066     0.005394
PD3052   PD        0.671048    0.482749    0.554348     0.005394
PD3053   PD        0.669418    0.520079    0.588029     0.005394
PD3054   PD        0.707471    0.484346    0.590278     0.005394
PD3055   PD        0.708276    0.518434    0.554900     0.005394
PD3056   PD        0.744977    0.482218    0.554863     0.005394
NI3057   NI        0.745091    0.519735    0.590590     0.004307
NI3058   NI        0.782354    0.484074    0.587039     0.004307
NI3059   NI        0.782437    0.518006    0.554549     0.004307
NI3060   NI        0.830268    0.477636    0.531525     0.004307
NI3061   NI        0.815884    0.515984    0.591152     0.004307
NI3062   NI        0.875922    0.452685    0.596323     0.004307
NI3063   NI        0.847923    0.516413    0.554007     0.004307
NI3064   NI        0.082576    0.553485    0.559822     0.004307
NI3065   NI        0.084440    0.588326    0.591473     0.004307
NI3066   NI        0.119406    0.554586    0.592947     0.004307
NI3067   NI        0.117886    0.587085    0.557986     0.004307
PD3068   PD        0.154954    0.555754    0.558163     0.005394
NI3069   NI        0.155988    0.589555    0.593159     0.004307
PD3070   PD        0.191331    0.555156    0.593597     0.005394
PD3071   PD        0.190607    0.590514    0.559165     0.005394
NI3072   NI        0.202871    0.562701    0.547479     0.004307
PD3073   PD        0.228990    0.589970    0.593757     0.005394
PD3074   PD        0.265200    0.556736    0.592939     0.005394
PD3075   PD        0.265339    0.590320    0.557999     0.005394
PD3076   PD        0.302767    0.556874    0.559408     0.005394
PD3077   PD        0.301907    0.590382    0.592958     0.005394
PD3078   PD        0.338607    0.557337    0.592456     0.005394
PD3079   PD        0.338097    0.590175    0.558124     0.005394
PD3080   PD        0.375184    0.556122    0.558221     0.005394
PD3081   PD        0.375720    0.591376    0.592691     0.005394
PD3082   PD        0.412446    0.555665    0.591003     0.005394
PD3083   PD        0.418805    0.600185    0.576500     0.005394
PD3084   PD        0.450919    0.553990    0.557293     0.005394
PD3085   PD        0.451692    0.591110    0.591157     0.005394
PD3086   PD        0.485251    0.554439    0.587104     0.005394
PD3087   PD        0.487080    0.587888    0.556406     0.005394
PD3088   PD        0.524642    0.554318    0.555821     0.005394
PD3089   PD        0.524631    0.589202    0.590788     0.005394
PD3090   PD        0.560745    0.553559    0.590634     0.005394
PD3091   PD        0.562969    0.623347    0.589019     0.005394
PD3092   PD        0.598731    0.553959    0.556489     0.005394
PD3093   PD        0.597427    0.589195    0.588896     0.005394
PD3094   PD        0.634911    0.554685    0.587151     0.005394
PD3095   PD        0.634275    0.588764    0.554876     0.005394
PD3096   PD        0.669743    0.551853    0.557307     0.005394
PD3097   PD        0.670794    0.587686    0.588878     0.005394
PD3098   PD        0.707473    0.551942    0.590069     0.005394
NI3099   NI        0.742933    0.551454    0.546648     0.004307
NI3100   NI        0.745493    0.553388    0.555104     0.004307
NI3101   NI        0.745590    0.586934    0.588448     0.004307
NI3102   NI        0.783654    0.552684    0.587802     0.004307
NI3103   NI        0.782278    0.586688    0.553524     0.004307
NI3104   NI        0.816090    0.551751    0.556911     0.004307
NI3105   NI        0.812178    0.580726    0.584621     0.004307
NI3106   NI        0.123739    0.620922    0.591928     0.004307
NI3107   NI        0.120572    0.657693    0.556407     0.004307
NI3108   NI        0.154477    0.623865    0.556438     0.004307
NI3109   NI        0.156850    0.654805    0.591707     0.004307
NI3110   NI        0.192016    0.624557    0.592653     0.004307
NI3111   NI        0.192215    0.659969    0.558102     0.004307
PD3112   PD        0.229096    0.622916    0.559320     0.005394
NI3113   NI        0.239313    0.634409    0.604459     0.004307
PD3114   PD        0.265883    0.625335    0.592702     0.005394
PD3115   PD        0.267370    0.659113    0.557601     0.005394
PD3116   PD        0.302197    0.624085    0.557561     0.005394
PD3117   PD        0.303064    0.658885    0.592280     0.005394
PD3118   PD        0.339251    0.623736    0.591741     0.005394
PD3119   PD        0.338360    0.657685    0.555120     0.005394
PD3120   PD        0.376978    0.624058    0.558003     0.005394
PD3121   PD        0.376620    0.657324    0.591231     0.005394
PD3122   PD        0.413691    0.623004    0.590664     0.005394
PD3123   PD        0.413337    0.658727    0.557123     0.005394
PD3124   PD        0.451502    0.623281    0.554014     0.005394
PD3125   PD        0.452064    0.658889    0.590202     0.005394
PD3126   PD        0.486277    0.626515    0.590254     0.005394
PD3127   PD        0.487095    0.657309    0.556002     0.005394
PD3128   PD        0.522881    0.623629    0.554328     0.005394
PD3129   PD        0.523428    0.658167    0.589468     0.005394
NI3130   NI        0.529324    0.651216    0.588149     0.004307
PD3131   PD        0.561179    0.658035    0.554761     0.005394
PD3132   PD        0.598335    0.621773    0.555986     0.005394
PD3133   PD        0.597086    0.658215    0.588207     0.005394
PD3134   PD        0.634693    0.623424    0.588119     0.005394
PD3135   PD        0.635412    0.656719    0.554549     0.005394
PD3136   PD        0.670872    0.622762    0.555107     0.005394
NI3137   NI        0.670303    0.656756    0.587912     0.004307
NI3138   NI        0.708688    0.622571    0.587729     0.004307
NI3139   NI        0.709087    0.655872    0.552653     0.004307
NI3140   NI        0.744641    0.620973    0.552210     0.004307
NI3141   NI        0.746470    0.655044    0.589256     0.004307
NI3142   NI        0.782674    0.622001    0.585556     0.004307
NI3143   NI        0.811499    0.659910    0.586153     0.004307
NI3144   NI        0.142192    0.702194    0.532454     0.004307
NI3145   NI        0.191208    0.693430    0.590374     0.004307
NI3146   NI        0.192552    0.725525    0.555818     0.004307
NI3147   NI        0.228713    0.693980    0.556720     0.004307
NI3148   NI        0.228406    0.725205    0.589758     0.004307
NI3149   NI        0.266392    0.692015    0.590610     0.004307
NI3150   NI        0.267409    0.726193    0.556394     0.004307
PD3151   PD        0.303108    0.693452    0.557154     0.005394
NI3152   NI        0.316940    0.701031    0.601885     0.004307
PD3153   PD        0.340090    0.693446    0.591019     0.005394
NI3154   NI        0.339979    0.726951    0.556941     0.004307
NI3155   NI        0.346329    0.687168    0.580004     0.004307
NI3156   NI        0.376125    0.726499    0.589139     0.004307
PD3157   PD        0.413066    0.692014    0.590048     0.005394
PD3158   PD        0.412790    0.726688    0.554387     0.005394
NI3159   NI        0.435894    0.697538    0.566678     0.004307
NI3160   NI        0.482235    0.732909    0.606354     0.004307
NI3161   NI        0.487911    0.703536    0.581411     0.004307
NI3162   NI        0.525823    0.718927    0.523016     0.004307
PD3163   PD        0.524894    0.692921    0.552713     0.005394
NI3164   NI        0.525307    0.725326    0.588193     0.004307
PD3165   PD        0.560839    0.692032    0.588404     0.005394
PD3166   PD        0.562143    0.726492    0.552741     0.005394
PD3167   PD        0.598544    0.692797    0.554361     0.005394
NI3168   NI        0.636352    0.726318    0.553367     0.004307
NI3169   NI        0.637437    0.690483    0.588944     0.004307
NI3170   NI        0.675566    0.749888    0.553527     0.004307
NI3171   NI        0.674559    0.690303    0.553475     0.004307
NI3172   NI        0.674174    0.723468    0.589172     0.004307
NI3173   NI        0.708994    0.690364    0.588394     0.004307
NI3174   NI        0.708502    0.724698    0.553943     0.004307
NI3175   NI        0.775065    0.655604    0.554337     0.004307
NI3176   NI        0.262706    0.757796    0.589146     0.004307
NI3177   NI        0.303506    0.761634    0.555681     0.004307
NI3178   NI        0.339725    0.760316    0.590297     0.004307
NI3179   NI        0.340424    0.794510    0.554615     0.004307
NI3180   NI        0.378250    0.758731    0.553900     0.004307
NI3181   NI        0.375663    0.803136    0.559886     0.004307
NI3182   NI        0.449531    0.761670    0.622829     0.004307
NI3183   NI        0.413748    0.793847    0.555916     0.004307
NI3184   NI        0.450586    0.758678    0.556024     0.004307
NI3185   NI        0.450258    0.794127    0.589139     0.004307
NI3186   NI        0.488885    0.761203    0.589404     0.004307
NI3187   NI        0.488807    0.795012    0.555798     0.004307
NI3188   NI        0.525384    0.761010    0.554307     0.004307
NI3189   NI        0.526392    0.792586    0.588485     0.004307
NI3190   NI        0.561421    0.758812    0.589528     0.004307
NI3191   NI        0.563126    0.795331    0.554299     0.004307
NI3192   NI        0.600372    0.758425    0.554272     0.004307
NI3193   NI        0.606892    0.770469    0.600828     0.004307
NI3194   NI        0.277317    0.094908    0.590257     0.004307
NI3195   NI        0.302378    0.107679    0.655314     0.004307
NI3196   NI        0.341400    0.108553    0.617604     0.004307
NI3197   NI        0.377145    0.074887    0.616795     0.004307
NI3198   NI        0.349271    0.141160    0.647135     0.004307
NI3199   NI        0.403657    0.068552    0.634187     0.004307
NI3200   NI        0.414592    0.109532    0.618677     0.004307
NI3201   NI        0.450265    0.077270    0.619112     0.004307
NI3202   NI        0.433377    0.091492    0.661770     0.004307
NI3203   NI        0.484078    0.100079    0.658722     0.004307
NI3204   NI        0.490195    0.110937    0.616185     0.004307
NI3205   NI        0.522789    0.073880    0.620058     0.004307
NI3206   NI        0.522451    0.108668    0.653938     0.004307
NI3207   NI        0.534253    0.122476    0.592252     0.004307
NI3208   NI        0.597597    0.113614    0.652583     0.004307
NI3209   NI        0.633417    0.106973    0.623380     0.004307
NI3210   NI        0.198444    0.179640    0.619618     0.004307
NI3211   NI        0.232281    0.145866    0.617407     0.004307
NI3212   NI        0.230002    0.176766    0.654948     0.004307
NI3213   NI        0.267277    0.143249    0.655404     0.004307
NI3214   NI        0.269135    0.178038    0.622952     0.004307
NI3215   NI        0.306770    0.144147    0.620898     0.004307
NI3216   NI        0.304801    0.176250    0.654975     0.004307
NI3217   NI        0.342324    0.141437    0.655111     0.004307
PD3218   PD        0.340416    0.177463    0.621122     0.005394
NI3219   NI        0.377925    0.143965    0.617556     0.004307
PD3220   PD        0.377810    0.177261    0.653825     0.005394
NI3221   NI        0.414291    0.146459    0.652245     0.004307
PD3222   PD        0.414596    0.177492    0.622183     0.005394
NI3223   NI        0.452708    0.134093    0.659859     0.004307
PD3224   PD        0.451028    0.177245    0.655561     0.005394
NI3225   NI        0.486971    0.145845    0.654387     0.004307
PD3226   PD        0.486874    0.176783    0.621028     0.005394
NI3227   NI        0.522967    0.142004    0.621389     0.004307
PD3228   PD        0.525703    0.176801    0.656233     0.005394
NI3229   NI        0.560785    0.141796    0.655372     0.004307
PD3230   PD        0.560081    0.174910    0.620341     0.005394
NI3231   NI        0.634509    0.141069    0.584098     0.004307
NI3232   NI        0.597474    0.177377    0.654453     0.004307
NI3233   NI        0.634127    0.146852    0.654886     0.004307
NI3234   NI        0.633677    0.176090    0.620484     0.004307
NI3235   NI        0.643724    0.120805    0.626063     0.004307
NI3236   NI        0.662848    0.208337    0.620303     0.004307
NI3237   NI        0.706227    0.173637    0.615885     0.004307
NI3238   NI        0.124421    0.247876    0.620400     0.004307
NI3239   NI        0.162469    0.215622    0.620879     0.004307
NI3240   NI        0.163496    0.244661    0.655118     0.004307
NI3241   NI        0.196649    0.212824    0.653889     0.004307
NI3242   NI        0.197573    0.247086    0.622435     0.004307
NI3243   NI        0.234862    0.213175    0.619075     0.004307
NI3244   NI        0.229827    0.246215    0.655946     0.004307
NI3245   NI        0.266701    0.211626    0.655194     0.004307
PD3246   PD        0.269265    0.244821    0.621609     0.005394
PD3247   PD        0.304625    0.212726    0.621750     0.005394
PD3248   PD        0.303154    0.246456    0.656949     0.005394
PD3249   PD        0.341238    0.212169    0.655140     0.005394
PD3250   PD        0.340208    0.245358    0.622189     0.005394
PD3251   PD        0.376582    0.212668    0.621307     0.005394
PD3252   PD        0.378272    0.245301    0.656702     0.005394
PD3253   PD        0.414695    0.211711    0.654272     0.005394
PD3254   PD        0.414031    0.246011    0.620686     0.005394
PD3255   PD        0.450887    0.210884    0.620131     0.005394
PD3256   PD        0.451727    0.245135    0.654861     0.005394
PD3257   PD        0.486114    0.210408    0.655326     0.005394
PD3258   PD        0.488486    0.244013    0.620319     0.005394
PD3259   PD        0.525132    0.209909    0.621403     0.005394
PD3260   PD        0.524156    0.245039    0.655076     0.005394
NI3261   NI        0.564324    0.241805    0.682065     0.004307
PD3262   PD        0.560743    0.245775    0.621255     0.005394
PD3263   PD        0.597723    0.211702    0.622046     0.005394
PD3264   PD        0.599021    0.245302    0.655772     0.005394
NI3265   NI        0.634338    0.212316    0.655956     0.004307
PD3266   PD        0.634092    0.244264    0.620768     0.005394
NI3267   NI        0.671704    0.211494    0.621725     0.004307
NI3268   NI        0.670032    0.244341    0.656349     0.004307
NI3269   NI        0.708191    0.209985    0.655759     0.004307
NI3270   NI        0.700613    0.241497    0.620469     0.004307
NI3271   NI        0.747145    0.232659    0.614919     0.004307
NI3272   NI        0.745437    0.245119    0.657877     0.004307
NI3273   NI        0.773715    0.247320    0.619617     0.004307
NI3274   NI        0.154177    0.283447    0.670847     0.004307
NI3275   NI        0.126942    0.309088    0.621138     0.004307
NI3276   NI        0.161148    0.280698    0.622447     0.004307
NI3277   NI        0.162112    0.313253    0.655190     0.004307
NI3278   NI        0.196147    0.282435    0.654565     0.004307
NI3279   NI        0.198704    0.314432    0.621692     0.004307
PD3280   PD        0.231487    0.281354    0.624987     0.005394
PD3281   PD        0.231673    0.313408    0.658594     0.005394
PD3282   PD        0.268810    0.281189    0.656395     0.005394
PD3283   PD        0.267869    0.314157    0.624296     0.005394
PD3284   PD        0.302983    0.279933    0.623660     0.005394
PD3285   PD        0.302502    0.315378    0.657602     0.005394
PD3286   PD        0.342251    0.277951    0.654873     0.005394
PD3287   PD        0.340095    0.314441    0.622602     0.005394
PD3288   PD        0.376683    0.280041    0.620672     0.005394
PD3289   PD        0.375801    0.314291    0.654265     0.005394
PD3290   PD        0.413676    0.278206    0.655625     0.005394
PD3291   PD        0.412394    0.313156    0.620149     0.005394
PD3292   PD        0.450423    0.278512    0.620402     0.005394
PD3293   PD        0.452612    0.313205    0.653946     0.005394
PD3294   PD        0.487547    0.278457    0.654493     0.005394
PD3295   PD        0.488399    0.313740    0.620637     0.005394
PD3296   PD        0.525044    0.279070    0.621248     0.005394
PD3297   PD        0.524148    0.314505    0.654478     0.005394
PD3298   PD        0.560836    0.278634    0.656188     0.005394
PD3299   PD        0.562478    0.312169    0.621332     0.005394
PD3300   PD        0.599229    0.278443    0.620915     0.005394
PD3301   PD        0.596065    0.312245    0.657829     0.005394
PD3302   PD        0.634167    0.279363    0.654337     0.005394
PD3303   PD        0.634543    0.311305    0.620319     0.005394
PD3304   PD        0.670183    0.278849    0.620871     0.005394
NI3305   NI        0.673251    0.313492    0.654696     0.004307
NI3306   NI        0.734837    0.264583    0.646073     0.004307
NI3307   NI        0.706564    0.312030    0.620026     0.004307
NI3308   NI        0.743769    0.303751    0.626791     0.004307
NI3309   NI        0.746449    0.313266    0.655919     0.004307
NI3310   NI        0.781405    0.279108    0.651218     0.004307
NI3311   NI        0.780024    0.313820    0.617208     0.004307
NI3312   NI        0.091182    0.345125    0.620014     0.004307
NI3313   NI        0.055512    0.410474    0.651326     0.004307
NI3314   NI        0.123273    0.340146    0.659103     0.004307
NI3315   NI        0.090187    0.379515    0.657998     0.004307
NI3316   NI        0.153212    0.337948    0.631507     0.004307
NI3317   NI        0.160478    0.361719    0.668012     0.004307
PD3318   PD        0.195524    0.347627    0.656795     0.005394
NI3319   NI        0.187745    0.371186    0.634655     0.004307
NI3320   NI        0.232452    0.335446    0.629534     0.004307
PD3321   PD        0.229435    0.383560    0.658961     0.005394
PD3322   PD        0.267468    0.349205    0.659628     0.005394
PD3323   PD        0.267198    0.382163    0.625744     0.005394
PD3324   PD        0.300972    0.349596    0.623076     0.005394
PD3325   PD        0.302145    0.384038    0.660030     0.005394
PD3326   PD        0.338997    0.346894    0.655622     0.005394
PD3327   PD        0.338312    0.383012    0.623862     0.005394
PD3328   PD        0.379211    0.348936    0.621218     0.005394
PD3329   PD        0.383100    0.370094    0.660418     0.005394
PD3330   PD        0.418342    0.387863    0.627183     0.005394
PD3331   PD        0.412234    0.381948    0.620210     0.005394
PD3332   PD        0.449340    0.347598    0.621669     0.005394
PD3333   PD        0.443121    0.362984    0.675488     0.005394
PD3334   PD        0.486122    0.347793    0.654044     0.005394
PD3335   PD        0.489724    0.383332    0.622505     0.005394
PD3336   PD        0.523957    0.346417    0.623028     0.005394
PD3337   PD        0.523161    0.382628    0.657481     0.005394
PD3338   PD        0.560678    0.348692    0.654085     0.005394
PD3339   PD        0.558970    0.383607    0.621542     0.005394
PD3340   PD        0.601658    0.318798    0.592947     0.005394
PD3341   PD        0.596932    0.384859    0.653310     0.005394
NI3342   NI        0.640438    0.326877    0.665597     0.004307
PD3343   PD        0.634493    0.383705    0.618293     0.005394
PD3344   PD        0.671284    0.347989    0.618968     0.005394
NI3345   NI        0.657749    0.370808    0.655719     0.004307
NI3346   NI        0.690319    0.344854    0.677168     0.004307
NI3347   NI        0.734291    0.395186    0.648332     0.004307
NI3348   NI        0.744645    0.347306    0.621302     0.004307
NI3349   NI        0.762384    0.358870    0.648684     0.004307
NI3350   NI        0.772904    0.320505    0.671420     0.004307
NI3351   NI        0.780112    0.381320    0.624129     0.004307
NI3352   NI        0.813488    0.347873    0.616605     0.004307
NI3353   NI        0.811131    0.418081    0.618512     0.004307
NI3354   NI        0.089780    0.411741    0.624707     0.004307
NI3355   NI        0.091138    0.447750    0.658591     0.004307
NI3356   NI        0.118820    0.416208    0.661373     0.004307
NI3357   NI        0.082237    0.417648    0.626474     0.004307
NI3358   NI        0.159619    0.419099    0.625092     0.004307
NI3359   NI        0.160699    0.444032    0.651185     0.004307
NI3360   NI        0.194007    0.418828    0.663148     0.004307
PD3361   PD        0.192677    0.453490    0.627477     0.005394
PD3362   PD        0.227486    0.418572    0.626504     0.005394
PD3363   PD        0.231266    0.454034    0.660636     0.005394
PD3364   PD        0.266080    0.418194    0.660644     0.005394
PD3365   PD        0.266843    0.453211    0.627538     0.005394
PD3366   PD        0.302031    0.418152    0.627745     0.005394
PD3367   PD        0.302808    0.451120    0.660766     0.005394
PD3368   PD        0.339448    0.417260    0.661137     0.005394
PD3369   PD        0.373528    0.453004    0.634397     0.005394
PD3370   PD        0.381181    0.409393    0.640946     0.005394
PD3371   PD        0.375691    0.451989    0.660200     0.005394
PD3372   PD        0.420204    0.400728    0.669073     0.005394
PD3373   PD        0.418861    0.435286    0.642489     0.005394
PD3374   PD        0.450052    0.418273    0.620430     0.005394
PD3375   PD        0.452561    0.451456    0.657289     0.005394
PD3376   PD        0.475174    0.426297    0.677735     0.005394
PD3377   PD        0.499271    0.418457    0.639267     0.005394
PD3378   PD        0.525019    0.417112    0.621345     0.005394
PD3379   PD        0.523996    0.450410    0.658879     0.005394
PD3380   PD        0.557853    0.416828    0.656223     0.005394
PD3381   PD        0.560395    0.450366    0.623166     0.005394
PD3382   PD        0.597766    0.416961    0.620354     0.005394
PD3383   PD        0.599231    0.451642    0.653158     0.005394
PD3384   PD        0.634768    0.418301    0.652458     0.005394
PD3385   PD        0.633144    0.449759    0.622627     0.005394
PD3386   PD        0.669664    0.415819    0.620963     0.005394
PD3387   PD        0.669916    0.450704    0.656719     0.005394
NI3388   NI        0.685334    0.424253    0.665311     0.004307
NI3389   NI        0.714377    0.436446    0.632807     0.004307
NI3390   NI        0.734308    0.421997    0.607836     0.004307
NI3391   NI        0.765605    0.437761    0.663023     0.004307
NI3392   NI        0.782648    0.413939    0.657550     0.004307
NI3393   NI        0.781836    0.449484    0.623517     0.004307
NI3394   NI        0.817141    0.414488    0.625887     0.004307
NI3395   NI        0.814530    0.445927    0.654828     0.004307
NI3396   NI        0.076793    0.504162    0.641594     0.004307
NI3397   NI        0.119598    0.487429    0.660798     0.004307
NI3398   NI        0.119059    0.521609    0.627325     0.004307
NI3399   NI        0.156907    0.487112    0.629241     0.004307
NI3400   NI        0.156219    0.524234    0.662406     0.004307
PD3401   PD        0.193173    0.487087    0.661533     0.005394
PD3402   PD        0.191172    0.522113    0.627630     0.005394
PD3403   PD        0.227079    0.489632    0.627855     0.005394
PD3404   PD        0.228507    0.522175    0.662679     0.005394
PD3405   PD        0.266101    0.487257    0.661665     0.005394
PD3406   PD        0.264022    0.522627    0.627101     0.005394
PD3407   PD        0.302088    0.486961    0.626791     0.005394
PD3408   PD        0.302240    0.518196    0.657612     0.005394
PD3409   PD        0.340885    0.486318    0.657868     0.005394
PD3410   PD        0.306317    0.547321    0.621733     0.005394
PD3411   PD        0.377463    0.485815    0.625531     0.005394
PD3412   PD        0.377315    0.520903    0.659739     0.005394
PD3413   PD        0.394318    0.464242    0.665784     0.005394
PD3414   PD        0.415252    0.520109    0.624622     0.005394
PD3415   PD        0.451118    0.486715    0.622472     0.005394
PD3416   PD        0.452980    0.522076    0.657975     0.005394
PD3417   PD        0.488007    0.486677    0.658934     0.005394
PD3418   PD        0.487222    0.521566    0.624357     0.005394
PD3419   PD        0.524995    0.486595    0.624152     0.005394
PD3420   PD        0.523203    0.521139    0.658530     0.005394
PD3421   PD        0.560296    0.484386    0.656949     0.005394
PD3422   PD        0.561632    0.522376    0.624779     0.005394
PD3423   PD        0.596039    0.484535    0.622328     0.005394
PD3424   PD        0.597750    0.520259    0.657555     0.005394
PD3425   PD        0.634221    0.485777    0.658180     0.005394
PD3426   PD        0.634362    0.519792    0.624428     0.005394
PD3427   PD        0.669782    0.484262    0.624136     0.005394
NI3428   NI        0.701660    0.508777    0.669102     0.004307
NI3429   NI        0.690066    0.467474    0.661637     0.004307
PD3430   PD        0.707683    0.519925    0.622348     0.005394
NI3431   NI        0.745909    0.484761    0.621729     0.004307
NI3432   NI        0.745874    0.517602    0.655760     0.004307
NI3433   NI        0.782866    0.484540    0.657003     0.004307
NI3434   NI        0.781584    0.517921    0.623185     0.004307
NI3435   NI        0.818375    0.482138    0.623819     0.004307
NI3436   NI        0.119545    0.556944    0.661048     0.004307
NI3437   NI        0.119689    0.588297    0.626370     0.004307
NI3438   NI        0.155649    0.555785    0.627235     0.004307
NI3439   NI        0.156669    0.588344    0.661466     0.004307
NI3440   NI        0.193413    0.556441    0.660879     0.004307
NI3441   NI        0.192379    0.591225    0.627461     0.004307
PD3442   PD        0.228883    0.555591    0.627566     0.005394
NI3443   NI        0.229189    0.590998    0.660267     0.004307
NI3444   NI        0.241374    0.568752    0.670724     0.004307
PD3445   PD        0.265814    0.590234    0.625976     0.005394
PD3446   PD        0.301067    0.555880    0.626969     0.005394
NI3447   NI        0.318366    0.585252    0.649848     0.004307
PD3448   PD        0.339621    0.556454    0.659781     0.005394
PD3449   PD        0.341797    0.581854    0.609606     0.005394
PD3450   PD        0.378536    0.555558    0.626637     0.005394
PD3451   PD        0.378134    0.589329    0.660586     0.005394
PD3452   PD        0.416310    0.555214    0.661708     0.005394
PD3453   PD        0.412546    0.590398    0.625321     0.005394
PD3454   PD        0.450772    0.554753    0.624699     0.005394
PD3455   PD        0.451799    0.589625    0.657127     0.005394
PD3456   PD        0.487269    0.555951    0.657143     0.005394
PD3457   PD        0.488856    0.590887    0.623470     0.005394
PD3458   PD        0.524589    0.553885    0.623246     0.005394
PD3459   PD        0.524350    0.588790    0.658340     0.005394
PD3460   PD        0.561840    0.554104    0.658744     0.005394
PD3461   PD        0.561328    0.588672    0.623549     0.005394
PD3462   PD        0.596785    0.556056    0.623544     0.005394
PD3463   PD        0.598394    0.588943    0.656517     0.005394
PD3464   PD        0.633490    0.554223    0.657169     0.005394
PD3465   PD        0.634769    0.588647    0.622726     0.005394
PD3466   PD        0.671937    0.554483    0.622985     0.005394
NI3467   NI        0.672079    0.588506    0.655585     0.004307
NI3468   NI        0.710940    0.553139    0.652857     0.004307
NI3469   NI        0.708526    0.587935    0.622329     0.004307
NI3470   NI        0.696313    0.520281    0.622415     0.004307
NI3471   NI        0.745553    0.587117    0.655816     0.004307
NI3472   NI        0.739964    0.550396    0.682389     0.004307
NI3473   NI        0.781578    0.586897    0.623811     0.004307
NI3474   NI        0.156516    0.623725    0.626720     0.004307
NI3475   NI        0.192676    0.625684    0.662114     0.004307
NI3476   NI        0.192511    0.658467    0.626878     0.004307
NI3477   NI        0.228728    0.626219    0.627612     0.004307
NI3478   NI        0.230453    0.658811    0.661498     0.004307
NI3479   NI        0.265583    0.625776    0.660409     0.004307
NI3480   NI        0.267783    0.660003    0.626686     0.004307
PD3481   PD        0.303657    0.625069    0.626226     0.005394
NI3482   NI        0.305576    0.660055    0.660193     0.004307
PD3483   PD        0.340634    0.625790    0.659271     0.005394
PD3484   PD        0.339738    0.659141    0.625046     0.005394
PD3485   PD        0.377351    0.626089    0.625307     0.005394
NI3486   NI        0.376956    0.660190    0.659074     0.004307
NI3487   NI        0.389332    0.632548    0.673005     0.004307
PD3488   PD        0.412781    0.658451    0.624871     0.005394
NI3489   NI        0.460677    0.638007    0.630446     0.004307
NI3490   NI        0.487268    0.664534    0.664930     0.004307
PD3491   PD        0.489167    0.591168    0.622136     0.005394
PD3492   PD        0.487823    0.655973    0.623782     0.005394
PD3493   PD        0.525455    0.622976    0.623652     0.005394
NI3494   NI        0.525256    0.659450    0.658619     0.004307
PD3495   PD        0.560458    0.623516    0.657197     0.005394
PD3496   PD        0.561202    0.658344    0.622890     0.005394
PD3497   PD        0.596198    0.623641    0.623279     0.005394
NI3498   NI        0.597610    0.655083    0.657095     0.004307
NI3499   NI        0.633569    0.623747    0.655776     0.004307
NI3500   NI        0.635979    0.655867    0.621538     0.004307
NI3501   NI        0.673326    0.622675    0.622516     0.004307
NI3502   NI        0.672541    0.655621    0.655468     0.004307
NI3503   NI        0.708182    0.622422    0.657310     0.004307
NI3504   NI        0.709232    0.655281    0.620145     0.004307
NI3505   NI        0.770940    0.587185    0.617227     0.004307
NI3506   NI        0.227820    0.699574    0.595699     0.004307
NI3507   NI        0.267157    0.694126    0.660028     0.004307
NI3508   NI        0.266553    0.726024    0.625836     0.004307
NI3509   NI        0.302241    0.693642    0.625866     0.004307
NI3510   NI        0.303240    0.727229    0.659704     0.004307
NI3511   NI        0.340890    0.694460    0.659270     0.004307
NI3512   NI        0.374462    0.754539    0.619287     0.004307
PD3513   PD        0.377223    0.694151    0.624486     0.005394
NI3514   NI        0.378631    0.727000    0.659047     0.004307
NI3515   NI        0.439094    0.664500    0.618879     0.004307
NI3516   NI        0.413844    0.727289    0.624899     0.004307
NI3517   NI        0.455935    0.725037    0.650487     0.004307
NI3518   NI        0.452517    0.728197    0.659404     0.004307
NI3519   NI        0.486207    0.719952    0.685376     0.004307
NI3520   NI        0.487021    0.728131    0.622667     0.004307
NI3521   NI        0.524364    0.693051    0.622628     0.004307
NI3522   NI        0.501838    0.711915    0.660417     0.004307
NI3523   NI        0.522314    0.697175    0.662623     0.004307
NI3524   NI        0.561115    0.725978    0.623227     0.004307
NI3525   NI        0.599534    0.691687    0.623493     0.004307
NI3526   NI        0.601012    0.725109    0.656556     0.004307
NI3527   NI        0.636325    0.691106    0.656418     0.004307
NI3528   NI        0.636610    0.726379    0.622684     0.004307
NI3529   NI        0.671854    0.689299    0.621687     0.004307
NI3530   NI        0.377916    0.761134    0.624420     0.004307
NI3531   NI        0.413854    0.760222    0.658630     0.004307
NI3532   NI        0.490524    0.793218    0.623108     0.004307
NI3533   NI        0.487014    0.759996    0.657928     0.004307
NI3534   NI        0.525646    0.761194    0.622608     0.004307
NI3535   NI        0.417508    0.111494    0.683640     0.004307
NI3536   NI        0.487526    0.111707    0.688115     0.004307
NI3537   NI        0.270164    0.177806    0.689731     0.004307
NI3538   NI        0.303152    0.140289    0.688328     0.004307
NI3539   NI        0.273414    0.151604    0.726164     0.004307
NI3540   NI        0.311430    0.207801    0.688792     0.004307
NI3541   NI        0.374747    0.147400    0.688443     0.004307
NI3542   NI        0.377654    0.177255    0.723913     0.004307
NI3543   NI        0.449574    0.176022    0.723318     0.004307
NI3544   NI        0.414239    0.177545    0.689292     0.004307
NI3545   NI        0.453042    0.144460    0.688588     0.004307
NI3546   NI        0.449079    0.176679    0.723770     0.004307
NI3547   NI        0.486021    0.141783    0.725035     0.004307
NI3548   NI        0.487106    0.177408    0.689377     0.004307
NI3549   NI        0.562538    0.142731    0.717165     0.004307
NI3550   NI        0.489066    0.176974    0.750255     0.004307
NI3551   NI        0.560877    0.178223    0.689134     0.004307
NI3552   NI        0.600627    0.144596    0.689637     0.004307
NI3553   NI        0.635506    0.176382    0.759262     0.004307
NI3554   NI        0.636342    0.178322    0.687591     0.004307
NI3555   NI        0.196113    0.244670    0.689155     0.004307
NI3556   NI        0.231093    0.212783    0.688775     0.004307
NI3557   NI        0.230203    0.245431    0.723664     0.004307
NI3558   NI        0.264562    0.211560    0.722482     0.004307
NI3559   NI        0.265905    0.244638    0.688832     0.004307
NI3560   NI        0.301140    0.213407    0.687412     0.004307
NI3561   NI        0.301995    0.245385    0.723061     0.004307
NI3562   NI        0.341671    0.211036    0.723975     0.004307
PD3563   PD        0.339368    0.245324    0.689709     0.005394
NI3564   NI        0.378727    0.212200    0.687081     0.004307
NI3565   NI        0.377855    0.244984    0.724822     0.004307
NI3566   NI        0.413986    0.211005    0.724499     0.004307
PD3567   PD        0.413504    0.244881    0.690872     0.005394
PD3568   PD        0.450570    0.210389    0.688037     0.005394
NI3569   NI        0.442211    0.249947    0.722058     0.004307
NI3570   NI        0.489576    0.210801    0.723117     0.004307
PD3571   PD        0.488144    0.243944    0.689305     0.005394
PD3572   PD        0.526127    0.211693    0.689238     0.005394
NI3573   NI        0.492036    0.247387    0.681839     0.004307
NI3574   NI        0.560834    0.212350    0.722097     0.004307
PD3575   PD        0.560266    0.245227    0.689709     0.005394
NI3576   NI        0.599725    0.212494    0.689729     0.004307
NI3577   NI        0.597147    0.247440    0.721220     0.004307
NI3578   NI        0.635578    0.209814    0.724430     0.004307
NI3579   NI        0.637011    0.245565    0.688572     0.004307
NI3580   NI        0.708637    0.210822    0.725501     0.004307
NI3581   NI        0.673506    0.245511    0.721127     0.004307
NI3582   NI        0.709678    0.245265    0.688408     0.004307
NI3583   NI        0.149220    0.246459    0.696073     0.004307
NI3584   NI        0.201249    0.279559    0.726268     0.004307
NI3585   NI        0.192597    0.312512    0.687534     0.004307
NI3586   NI        0.234457    0.280023    0.690144     0.004307
NI3587   NI        0.230923    0.314100    0.723442     0.004307
NI3588   NI        0.265868    0.279255    0.723962     0.004307
PD3589   PD        0.267869    0.313209    0.692222     0.005394
PD3590   PD        0.303922    0.278999    0.690945     0.005394
NI3591   NI        0.303461    0.313522    0.721601     0.004307
NI3592   NI        0.338867    0.278369    0.723949     0.004307
PD3593   PD        0.338928    0.312029    0.689541     0.005394
PD3594   PD        0.376080    0.278923    0.690385     0.005394
PD3595   PD        0.377527    0.314106    0.724914     0.005394
PD3596   PD        0.413822    0.281032    0.722961     0.005394
PD3597   PD        0.413169    0.313847    0.690885     0.005394
NI3598   NI        0.460427    0.301058    0.681498     0.004307
PD3599   PD        0.451282    0.314772    0.724533     0.005394
NI3600   NI        0.524516    0.244980    0.721839     0.004307
PD3601   PD        0.486752    0.315163    0.689756     0.005394
PD3602   PD        0.524303    0.279232    0.688978     0.005394
NI3603   NI        0.522705    0.312290    0.725818     0.004307
NI3604   NI        0.560509    0.278782    0.724507     0.004307
NI3605   NI        0.569095    0.286217    0.704700     0.004307
PD3606   PD        0.598085    0.279093    0.689402     0.005394
NI3607   NI        0.600542    0.314510    0.721453     0.004307
NI3608   NI        0.637929    0.281234    0.722185     0.004307
PD3609   PD        0.634972    0.313801    0.687592     0.005394
NI3610   NI        0.673387    0.279805    0.688177     0.004307
NI3611   NI        0.672034    0.314641    0.720296     0.004307
NI3612   NI        0.710201    0.278534    0.718736     0.004307
NI3613   NI        0.709396    0.314370    0.687052     0.004307
NI3614   NI        0.746418    0.279915    0.687413     0.004307
NI3615   NI        0.127407    0.383624    0.691409     0.004307
NI3616   NI        0.160331    0.346795    0.687660     0.004307
NI3617   NI        0.114699    0.378567    0.733272     0.004307
NI3618   NI        0.195688    0.345275    0.725361     0.004307
NI3619   NI        0.193608    0.382534    0.695526     0.004307
NI3620   NI        0.230517    0.347872    0.689704     0.004307
NI3621   NI        0.230398    0.381115    0.723495     0.004307
NI3622   NI        0.267011    0.347781    0.724071     0.004307
PD3623   PD        0.265795    0.382759    0.692569     0.005394
PD3624   PD        0.303242    0.349366    0.692063     0.005394
PD3625   PD        0.302743    0.383443    0.724349     0.005394
NI3626   NI        0.332298    0.330301    0.732183     0.004307
PD3627   PD        0.339114    0.382861    0.691926     0.005394
PD3628   PD        0.375098    0.346866    0.689480     0.005394
PD3629   PD        0.376351    0.382710    0.723406     0.005394
NI3630   NI        0.418185    0.315564    0.755982     0.004307
NI3631   NI        0.400592    0.380705    0.704578     0.004307
PD3632   PD        0.452590    0.347679    0.689957     0.005394
PD3633   PD        0.452370    0.382236    0.724590     0.005394
PD3634   PD        0.486491    0.346714    0.724643     0.005394
PD3635   PD        0.487451    0.382229    0.690264     0.005394
PD3636   PD        0.525067    0.348117    0.690074     0.005394
PD3637   PD        0.524143    0.382746    0.724020     0.005394
NI3638   NI        0.572440    0.322527    0.741906     0.004307
PD3639   PD        0.559595    0.382181    0.690225     0.005394
NI3640   NI        0.592758    0.342746    0.687985     0.004307
NI3641   NI        0.599701    0.383604    0.723875     0.004307
NI3642   NI        0.638684    0.348777    0.721590     0.004307
NI3643   NI        0.602513    0.379724    0.716431     0.004307
NI3644   NI        0.674062    0.348248    0.690238     0.004307
NI3645   NI        0.671039    0.381660    0.724963     0.004307
NI3646   NI        0.707449    0.347665    0.720671     0.004307
NI3647   NI        0.710647    0.383714    0.688270     0.004307
NI3648   NI        0.741837    0.348003    0.690393     0.004307
NI3649   NI        0.730580    0.372068    0.687070     0.004307
NI3650   NI        0.777240    0.380037    0.688175     0.004307
NI3651   NI        0.124031    0.449136    0.691840     0.004307
NI3652   NI        0.157890    0.417625    0.695942     0.004307
NI3653   NI        0.155960    0.451006    0.725827     0.004307
NI3654   NI        0.187290    0.412465    0.714320     0.004307
NI3655   NI        0.193397    0.452657    0.695219     0.004307
PD3656   PD        0.228953    0.418923    0.694591     0.005394
NI3657   NI        0.227849    0.453325    0.728504     0.004307
PD3658   PD        0.266470    0.416210    0.726017     0.005394
PD3659   PD        0.265024    0.451809    0.694622     0.005394
PD3660   PD        0.302316    0.416714    0.693130     0.005394
NI3661   NI        0.302643    0.449235    0.728886     0.004307
NI3662   NI        0.366712    0.423577    0.738633     0.004307
PD3663   PD        0.340709    0.452705    0.693636     0.005394
PD3664   PD        0.375809    0.418052    0.692348     0.005394
NI3665   NI        0.366722    0.477743    0.730767     0.004307
PD3666   PD        0.413551    0.416135    0.726030     0.005394
NI3667   NI        0.403226    0.448640    0.712620     0.004307
NI3668   NI        0.444867    0.392620    0.710121     0.004307
PD3669   PD        0.451216    0.450906    0.726418     0.005394
PD3670   PD        0.485891    0.416251    0.724008     0.005394
NI3671   NI        0.453850    0.456425    0.720024     0.004307
PD3672   PD        0.524258    0.416294    0.690519     0.005394
PD3673   PD        0.525701    0.452402    0.724922     0.005394
PD3674   PD        0.561246    0.418012    0.721494     0.005394
PD3675   PD        0.560679    0.451937    0.690380     0.005394
PD3676   PD        0.598467    0.416949    0.689547     0.005394
PD3677   PD        0.597458    0.450779    0.725060     0.005394
NI3678   NI        0.633886    0.416259    0.725700     0.004307
PD3679   PD        0.633753    0.449859    0.691144     0.005394
NI3680   NI        0.670044    0.416978    0.693407     0.004307
NI3681   NI        0.707808    0.485256    0.724504     0.004307
NI3682   NI        0.709479    0.415374    0.723728     0.004307
NI3683   NI        0.707528    0.449360    0.692524     0.004307
NI3684   NI        0.745295    0.416794    0.689650     0.004307
NI3685   NI        0.744491    0.451524    0.722644     0.004307
NI3686   NI        0.781570    0.449116    0.691398     0.004307
NI3687   NI        0.157715    0.487871    0.696582     0.004307
NI3688   NI        0.192907    0.487259    0.730886     0.004307
NI3689   NI        0.194878    0.523360    0.695396     0.004307
NI3690   NI        0.230104    0.486819    0.695685     0.004307
NI3691   NI        0.230309    0.518204    0.730053     0.004307
NI3692   NI        0.267568    0.485290    0.727949     0.004307
PD3693   PD        0.265119    0.520196    0.694834     0.005394
NI3694   NI        0.292894    0.482889    0.712461     0.004307
NI3695   NI        0.303499    0.522972    0.728631     0.004307
PD3696   PD        0.341029    0.486146    0.728677     0.005394
PD3697   PD        0.341346    0.521582    0.694854     0.005394
NI3698   NI        0.390678    0.487310    0.691722     0.004307
PD3699   PD        0.377733    0.520836    0.728087     0.005394
PD3700   PD        0.416746    0.485406    0.728447     0.005394
NI3701   NI        0.419071    0.523093    0.687986     0.004307
PD3702   PD        0.440167    0.473683    0.683743     0.005394
NI3703   NI        0.416196    0.521215    0.762544     0.004307
NI3704   NI        0.500285    0.460738    0.733985     0.004307
PD3705   PD        0.489586    0.521313    0.690933     0.005394
PD3706   PD        0.526550    0.486551    0.692002     0.005394
PD3707   PD        0.526400    0.520109    0.726502     0.005394
PD3708   PD        0.560914    0.485788    0.726351     0.005394
PD3709   PD        0.561882    0.519759    0.690378     0.005394
NI3710   NI        0.567008    0.512969    0.693333     0.004307
PD3711   PD        0.597908    0.518874    0.725067     0.005394
NI3712   NI        0.635248    0.483193    0.725201     0.004307
PD3713   PD        0.633780    0.518911    0.691678     0.005394
PD3714   PD        0.667835    0.484717    0.692694     0.005394
NI3715   NI        0.671923    0.519142    0.726062     0.004307
NI3716   NI        0.708294    0.485622    0.723211     0.004307
NI3717   NI        0.736060    0.517373    0.658520     0.004307
NI3718   NI        0.785781    0.483259    0.719644     0.004307
NI3719   NI        0.159414    0.555576    0.695004     0.004307
NI3720   NI        0.178466    0.543275    0.702426     0.004307
NI3721   NI        0.193339    0.589998    0.696320     0.004307
NI3722   NI        0.230302    0.554436    0.695919     0.004307
NI3723   NI        0.233611    0.590970    0.726652     0.004307
NI3724   NI        0.267538    0.556161    0.730426     0.004307
NI3725   NI        0.267617    0.588351    0.697053     0.004307
NI3726   NI        0.277131    0.566182    0.700048     0.004307
NI3727   NI        0.304433    0.589242    0.728767     0.004307
NI3728   NI        0.343015    0.555559    0.729009     0.004307
PD3729   PD        0.340645    0.591620    0.693739     0.005394
PD3730   PD        0.377727    0.555574    0.694217     0.005394
NI3731   NI        0.378429    0.589664    0.726905     0.004307
PD3732   PD        0.415038    0.555796    0.728190     0.005394
PD3733   PD        0.414836    0.589754    0.693282     0.005394
PD3734   PD        0.450316    0.554111    0.692845     0.005394
PD3735   PD        0.452690    0.588285    0.727824     0.005394
NI3736   NI        0.490121    0.555481    0.726787     0.004307
PD3737   PD        0.489826    0.589061    0.691232     0.005394
PD3738   PD        0.526333    0.553680    0.691748     0.005394
NI3739   NI        0.526167    0.588437    0.726574     0.004307
NI3740   NI        0.564792    0.554049    0.723642     0.004307
PD3741   PD        0.562431    0.590000    0.691948     0.005394
PD3742   PD        0.599555    0.553070    0.692005     0.005394
NI3743   NI        0.599992    0.588547    0.726817     0.004307
NI3744   NI        0.636441    0.551968    0.726051     0.004307
NI3745   NI        0.639007    0.618308    0.716084     0.004307
NI3746   NI        0.700046    0.551028    0.656145     0.004307
NI3747   NI        0.674357    0.586712    0.725032     0.004307
NI3748   NI        0.711086    0.553668    0.723399     0.004307
NI3749   NI        0.710399    0.586741    0.688696     0.004307
NI3750   NI        0.746428    0.553481    0.689563     0.004307
NI3751   NI        0.229515    0.624394    0.693414     0.004307
NI3752   NI        0.267971    0.623779    0.728601     0.004307
NI3753   NI        0.267326    0.659747    0.694478     0.004307
NI3754   NI        0.303183    0.624299    0.694807     0.004307
NI3755   NI        0.269600    0.667958    0.736082     0.004307
NI3756   NI        0.341856    0.623640    0.729415     0.004307
NI3757   NI        0.341014    0.659334    0.694155     0.004307
NI3758   NI        0.389236    0.602730    0.704760     0.004307
NI3759   NI        0.379719    0.658767    0.728213     0.004307
NI3760   NI        0.414827    0.622899    0.728405     0.004307
NI3761   NI        0.384370    0.670051    0.702865     0.004307
PD3762   PD        0.451850    0.622840    0.693455     0.005394
NI3763   NI        0.452325    0.657977    0.728055     0.004307
NI3764   NI        0.489129    0.623322    0.726015     0.004307
NI3765   NI        0.520663    0.666313    0.694765     0.004307
PD3766   PD        0.525898    0.622916    0.693406     0.005394
NI3767   NI        0.564222    0.691026    0.723267     0.004307
NI3768   NI        0.562018    0.622851    0.729112     0.004307
NI3769   NI        0.535548    0.651860    0.660467     0.004307
NI3770   NI        0.599393    0.624314    0.692500     0.004307
NI3771   NI        0.598964    0.656973    0.725971     0.004307
NI3772   NI        0.637362    0.624400    0.724823     0.004307
NI3773   NI        0.634240    0.658105    0.689088     0.004307
NI3774   NI        0.711182    0.656279    0.688765     0.004307
NI3775   NI        0.304706    0.693833    0.693456     0.004307
NI3776   NI        0.378069    0.692645    0.693718     0.004307
NI3777   NI        0.415322    0.692325    0.727163     0.004307
NI3778   NI        0.414946    0.728142    0.692789     0.004307
NI3779   NI        0.449853    0.692296    0.693171     0.004307
NI3780   NI        0.450153    0.683606    0.691202     0.004307
NI3781   NI        0.526348    0.732987    0.696542     0.004307
NI3782   NI        0.526013    0.691061    0.691299     0.004307
NI3783   NI        0.600879    0.692389    0.691079     0.004307
NI3784   NI        0.415140    0.173719    0.798330     0.004307
NI3785   NI        0.525207    0.172833    0.784991     0.004307
NI3786   NI        0.265981    0.244231    0.756834     0.004307
NI3787   NI        0.340534    0.246119    0.756333     0.004307
NI3788   NI        0.376007    0.210677    0.758096     0.004307
NI3789   NI        0.376878    0.244313    0.789402     0.004307
NI3790   NI        0.412343    0.245610    0.760099     0.004307
NI3791   NI        0.452671    0.209374    0.758511     0.004307
NI3792   NI        0.494784    0.245182    0.821984     0.004307
NI3793   NI        0.489539    0.244829    0.759570     0.004307
NI3794   NI        0.523935    0.209643    0.756728     0.004307
NI3795   NI        0.554428    0.210022    0.784190     0.004307
NI3796   NI        0.561143    0.245762    0.757005     0.004307
NI3797   NI        0.643612    0.275511    0.773958     0.004307
NI3798   NI        0.269319    0.314927    0.752444     0.004307
NI3799   NI        0.289116    0.275967    0.776950     0.004307
NI3800   NI        0.308877    0.314816    0.788568     0.004307
NI3801   NI        0.340568    0.275769    0.788184     0.004307
NI3802   NI        0.316097    0.309676    0.766397     0.004307
NI3803   NI        0.378358    0.280241    0.759022     0.004307
NI3804   NI        0.380465    0.314053    0.794493     0.004307
NI3805   NI        0.414031    0.279232    0.791285     0.004307
NI3806   NI        0.411967    0.311261    0.761598     0.004307
NI3807   NI        0.451260    0.278986    0.758594     0.004307
NI3808   NI        0.451024    0.313751    0.791032     0.004307
NI3809   NI        0.462533    0.273411    0.805174     0.004307
NI3810   NI        0.487650    0.314076    0.758379     0.004307
NI3811   NI        0.525710    0.250121    0.784467     0.004307
NI3812   NI        0.526731    0.285931    0.821460     0.004307
NI3813   NI        0.559910    0.284246    0.787878     0.004307
NI3814   NI        0.563811    0.314306    0.753112     0.004307
NI3815   NI        0.599267    0.283508    0.755521     0.004307
NI3816   NI        0.605107    0.284268    0.798618     0.004307
NI3817   NI        0.631814    0.318035    0.753808     0.004307
NI3818   NI        0.186527    0.351721    0.774637     0.004307
NI3819   NI        0.203200    0.354356    0.776671     0.004307
NI3820   NI        0.246844    0.351176    0.753381     0.004307
NI3821   NI        0.290878    0.358594    0.781648     0.004307
NI3822   NI        0.305729    0.350936    0.758067     0.004307
NI3823   NI        0.296003    0.402780    0.800052     0.004307
NI3824   NI        0.340506    0.350376    0.791433     0.004307
NI3825   NI        0.370016    0.401383    0.735248     0.004307
NI3826   NI        0.376784    0.346904    0.759495     0.004307
NI3827   NI        0.377091    0.383386    0.789933     0.004307
NI3828   NI        0.414438    0.348904    0.790045     0.004307
PD3829   PD        0.414489    0.382510    0.756593     0.005394
PD3830   PD        0.450652    0.348853    0.756722     0.005394
NI3831   NI        0.450041    0.379496    0.789125     0.004307
NI3832   NI        0.488947    0.347718    0.790997     0.004307
PD3833   PD        0.486123    0.382089    0.757105     0.005394
NI3834   NI        0.523417    0.347132    0.757194     0.004307
NI3835   NI        0.522995    0.379247    0.789516     0.004307
NI3836   NI        0.521826    0.351059    0.823552     0.004307
NI3837   NI        0.560208    0.353046    0.787142     0.004307
NI3838   NI        0.632551    0.345371    0.713897     0.004307
NI3839   NI        0.600493    0.381857    0.790379     0.004307
NI3840   NI        0.635120    0.349209    0.793051     0.004307
NI3841   NI        0.637304    0.380790    0.755258     0.004307
NI3842   NI        0.673058    0.314083    0.792551     0.004307
NI3843   NI        0.711688    0.380870    0.755438     0.004307
NI3844   NI        0.192853    0.450984    0.761380     0.004307
NI3845   NI        0.230168    0.418274    0.761302     0.004307
NI3846   NI        0.261061    0.393768    0.768523     0.004307
NI3847   NI        0.273606    0.451567    0.759590     0.004307
NI3848   NI        0.302267    0.416707    0.761101     0.004307
NI3849   NI        0.303858    0.451043    0.795925     0.004307
NI3850   NI        0.339104    0.417941    0.793185     0.004307
NI3851   NI        0.309669    0.415222    0.755748     0.004307
NI3852   NI        0.409852    0.418238    0.786242     0.004307
NI3853   NI        0.340332    0.448387    0.825219     0.004307
NI3854   NI        0.418695    0.415934    0.789302     0.004307
NI3855   NI        0.414776    0.450659    0.759522     0.004307
PD3856   PD        0.452203    0.416057    0.759330     0.005394
NI3857   NI        0.451757    0.450274    0.793021     0.004307
NI3858   NI        0.453761    0.412465    0.817657     0.004307
NI3859   NI        0.486077    0.450968    0.758599     0.004307
NI3860   NI        0.526573    0.383224    0.766793     0.004307
NI3861   NI        0.525716    0.449180    0.792079     0.004307
NI3862   NI        0.560004    0.413815    0.786933     0.004307
NI3863   NI        0.563888    0.450140    0.757290     0.004307
NI3864   NI        0.594473    0.415705    0.757382     0.004307
NI3865   NI        0.603206    0.451352    0.789345     0.004307
NI3866   NI        0.645876    0.434152    0.800862     0.004307
NI3867   NI        0.637278    0.449990    0.757422     0.004307
NI3868   NI        0.711922    0.414345    0.792456     0.004307
NI3869   NI        0.706705    0.490124    0.788105     0.004307
NI3870   NI        0.229601    0.485022    0.763262     0.004307
NI3871   NI        0.265426    0.486805    0.791977     0.004307
NI3872   NI        0.266442    0.520446    0.762501     0.004307
NI3873   NI        0.303724    0.485972    0.761032     0.004307
NI3874   NI        0.272038    0.479384    0.794409     0.004307
NI3875   NI        0.311511    0.448212    0.789723     0.004307
NI3876   NI        0.340532    0.520047    0.761033     0.004307
NI3877   NI        0.378178    0.485315    0.762310     0.004307
NI3878   NI        0.380803    0.520626    0.795648     0.004307
NI3879   NI        0.416357    0.484653    0.795670     0.004307
NI3880   NI        0.418542    0.516552    0.752077     0.004307
NI3881   NI        0.450636    0.486262    0.760564     0.004307
NI3882   NI        0.417808    0.553982    0.794432     0.004307
NI3883   NI        0.519979    0.455942    0.778313     0.004307
NI3884   NI        0.460962    0.488388    0.751648     0.004307
NI3885   NI        0.488908    0.484587    0.793059     0.004307
NI3886   NI        0.527640    0.519898    0.793593     0.004307
NI3887   NI        0.562470    0.483325    0.793896     0.004307
NI3888   NI        0.562082    0.526788    0.736725     0.004307
NI3889   NI        0.598829    0.484812    0.758862     0.004307
NI3890   NI        0.602614    0.518250    0.792940     0.004307
NI3891   NI        0.636717    0.482397    0.792060     0.004307
NI3892   NI        0.634959    0.518930    0.758624     0.004307
NI3893   NI        0.670663    0.483983    0.758940     0.004307
NI3894   NI        0.279528    0.580144    0.743667     0.004307
NI3895   NI        0.305195    0.553676    0.761637     0.004307
NI3896   NI        0.333908    0.537424    0.802538     0.004307
NI3897   NI        0.342280    0.588968    0.763250     0.004307
NI3898   NI        0.350333    0.523562    0.761023     0.004307
NI3899   NI        0.380248    0.587789    0.795490     0.004307
NI3900   NI        0.412646    0.548754    0.782029     0.004307
NI3901   NI        0.416555    0.588216    0.762285     0.004307
NI3902   NI        0.453427    0.554680    0.760087     0.004307
NI3903   NI        0.453417    0.588794    0.796430     0.004307
NI3904   NI        0.488670    0.552304    0.794360     0.004307
NI3905   NI        0.490443    0.588289    0.761541     0.004307
NI3906   NI        0.525634    0.553529    0.760823     0.004307
NI3907   NI        0.526677    0.622579    0.830165     0.004307
NI3908   NI        0.563761    0.552732    0.794631     0.004307
NI3909   NI        0.581008    0.593238    0.773853     0.004307
NI3910   NI        0.599005    0.554180    0.759148     0.004307
NI3911   NI        0.641287    0.596944    0.746392     0.004307
NI3912   NI        0.378882    0.622143    0.763521     0.004307
NI3913   NI        0.415735    0.657968    0.761385     0.004307
NI3914   NI        0.470917    0.627506    0.770741     0.004307
NI3915   NI        0.490305    0.656798    0.761836     0.004307
NI3916   NI        0.524643    0.623540    0.761476     0.004307
NI3917   NI        0.415517    0.385894    0.821537     0.004307
NI3918   NI        0.488844    0.348479    0.862634     0.004307
NI3919   NI        0.485408    0.380118    0.826600     0.004307
NI3920   NI        0.379134    0.416121    0.822794     0.004307
NI3921   NI        0.414201    0.448381    0.821844     0.004307
NI3922   NI        0.450342    0.417626    0.827021     0.004307
NI3923   NI        0.491855    0.446651    0.817449     0.004307
NI3924   NI        0.522821    0.447062    0.854252     0.004307
NI3925   NI        0.493826    0.516830    0.821665     0.004307
