data_00001
_audit_creation_method   'DISCUS'

_data_chemical_name_common 'Au.cell: Pearson 85'

_cell_length_a             57.1046
_cell_length_b             57.1046
_cell_length_c             57.1046
_cell_angle_alpha     90.0000
_cell_angle_beta      90.0000
_cell_angle_gamma     90.0000

_symmetry_space_group_name_H-M   'P1              '

loop_
_atom_site_label
_atom_site_symbol
_atom_site_fract_x
_atom_site_fract_y
_atom_site_fract_z
_atom_site_u_iso_or_equiv
NI1   NI        0.374622    0.237804    0.061805     0.004307
NI2   NI        0.471894    0.268127    0.032945     0.004307
NI3   NI        0.521930    0.289904    0.041368     0.004307
NI4   NI        0.294579    0.328606    0.063467     0.004307
NI5   NI        0.360785    0.365694    0.040566     0.004307
NI6   NI        0.339799    0.259542    0.053130     0.004307
NI7   NI        0.392805    0.316317    0.029395     0.004307
NI8   NI        0.445810    0.331175    0.043391     0.004307
NI9   NI        0.498581    0.301230    0.005319     0.004307
AU10   AU        0.519268    0.339527    0.051441     0.007504
NI11   NI        0.559652    0.329133    0.031418     0.004307
NI12   NI        0.594973    0.341187    0.055354     0.004307
NI13   NI        0.250435    0.414979    0.060363     0.004307
AU14   AU        0.314731    0.410148    0.058487     0.007504
NI15   NI        0.339376    0.452545    0.046813     0.004307
AU16   AU        0.382897    0.410064    0.032832     0.007504
AU17   AU        0.406020    0.366347    0.042238     0.007504
NI18   NI        0.429851    0.372889    0.001105     0.004307
NI19   NI        0.484769    0.313776    0.043923     0.004307
AU20   AU        0.439236    0.404535    0.038217     0.007504
AU21   AU        0.477405    0.367921    0.039256     0.007504
NI22   NI        0.474211    0.405603    0.004571     0.004307
AU23   AU        0.515498    0.407974    0.043525     0.007504
AU24   AU        0.553984    0.377792    0.047287     0.007504
AU25   AU        0.586513    0.414872    0.058400     0.007504
NI26   NI        0.595038    0.382394    0.023506     0.004307
NI27   NI        0.254134    0.461892    0.049615     0.004307
NI28   NI        0.312841    0.491114    0.056194     0.004307
NI29   NI        0.296948    0.446148    0.038503     0.004307
NI30   NI        0.368800    0.451558    0.017539     0.004307
AU31   AU        0.381025    0.485612    0.046446     0.007504
AU32   AU        0.414236    0.448349    0.034796     0.007504
NI33   NI        0.413304    0.513496    0.007046     0.004307
NI34   NI        0.452355    0.453531    0.000714     0.004307
AU35   AU        0.451181    0.482489    0.039986     0.007504
AU36   AU        0.474531    0.438684    0.040793     0.007504
NI37   NI        0.509251    0.438254    0.005471     0.004307
NI38   NI        0.553889    0.417504    0.013168     0.004307
AU39   AU        0.499975    0.472336    0.037651     0.007504
AU40   AU        0.549673    0.453314    0.049300     0.007504
NI41   NI        0.573775    0.490263    0.028329     0.004307
NI42   NI        0.632085    0.426439    0.050844     0.004307
NI43   NI        0.257914    0.534592    0.052592     0.004307
NI44   NI        0.306259    0.612268    0.056794     0.004307
NI45   NI        0.323532    0.531693    0.047905     0.004307
NI46   NI        0.367055    0.525817    0.041946     0.004307
AU47   AU        0.417933    0.520009    0.049156     0.007504
NI48   NI        0.455858    0.530668    0.017090     0.004307
AU49   AU        0.453197    0.557059    0.053465     0.007504
NI50   NI        0.482310    0.515094    0.047648     0.004307
NI51   NI        0.509933    0.557609    0.046359     0.004307
NI52   NI        0.529083    0.508604    0.038439     0.004307
NI53   NI        0.578616    0.529579    0.045272     0.004307
NI54   NI        0.621772    0.480828    0.094118     0.004307
NI55   NI        0.380837    0.571101    0.035891     0.004307
NI56   NI        0.342676    0.595394    0.045357     0.004307
NI57   NI        0.428819    0.591383    0.044938     0.004307
NI58   NI        0.405425    0.638162    0.038908     0.004307
NI59   NI        0.487965    0.592144    0.049325     0.004307
NI60   NI        0.529347    0.610049    0.037990     0.004307
NI61   NI        0.567096    0.578750    0.054020     0.004307
NI62   NI        0.290168    0.209404    0.118612     0.004307
NI63   NI        0.369425    0.191949    0.122697     0.004307
NI64   NI        0.446902    0.144633    0.148326     0.004307
NI65   NI        0.404603    0.183356    0.082048     0.004307
NI66   NI        0.447863    0.207815    0.102702     0.004307
NI67   NI        0.472867    0.173879    0.097663     0.004307
NI68   NI        0.474839    0.207188    0.071103     0.004307
NI69   NI        0.517255    0.174957    0.102617     0.004307
NI70   NI        0.572739    0.216633    0.063405     0.004307
NI71   NI        0.230970    0.279777    0.088353     0.004307
NI72   NI        0.280781    0.246483    0.090216     0.004307
NI73   NI        0.190420    0.271581    0.106942     0.004307
AU74   AU        0.308927    0.271495    0.121731     0.007504
AU75   AU        0.328728    0.232141    0.139928     0.007504
NI76   NI        0.339494    0.258843    0.093622     0.004307
NI77   NI        0.368925    0.229643    0.104783     0.004307
AU78   AU        0.382350    0.273465    0.119689     0.007504
AU79   AU        0.406469    0.230753    0.124955     0.007504
AU80   AU        0.415321    0.247362    0.083995     0.007504
NI81   NI        0.458668    0.248356    0.066942     0.004307
AU82   AU        0.458165    0.256096    0.110101     0.007504
NI83   NI        0.499410    0.219919    0.104337     0.004307
AU84   AU        0.471897    0.287216    0.075682     0.007504
NI85   NI        0.509650    0.245746    0.048799     0.004307
AU86   AU        0.511681    0.266272    0.112386     0.007504
NI87   NI        0.540023    0.229628    0.091977     0.004307
NI88   NI        0.543509    0.266777    0.072979     0.004307
AU89   AU        0.576494    0.258729    0.103420     0.007504
NI90   NI        0.596198    0.210784    0.107365     0.004307
NI91   NI        0.616685    0.252533    0.087405     0.004307
NI92   NI        0.653354    0.263775    0.111638     0.004307
NI93   NI        0.189062    0.322674    0.107471     0.004307
AU94   AU        0.232221    0.330889    0.128870     0.007504
AU95   AU        0.261352    0.293445    0.124201     0.007504
AU96   AU        0.254160    0.332331    0.091286     0.007504
NI97   NI        0.287552    0.286322    0.081944     0.004307
AU98   AU        0.300165    0.322081    0.113322     0.007504
AU99   AU        0.343287    0.304059    0.102909     0.007504
AU100   AU        0.366168    0.327135    0.065769     0.007504
AU101   AU        0.383291    0.285651    0.072517     0.007504
AU102   AU        0.385391    0.325242    0.114072     0.007504
AU103   AU        0.426424    0.291431    0.101947     0.007504
AU104   AU        0.413218    0.325726    0.074303     0.007504
AU105   AU        0.430197    0.286974    0.053151     0.007504
AU106   AU        0.441776    0.338186    0.114396     0.007504
AU107   AU        0.476298    0.303585    0.115692     0.007504
AU108   AU        0.476696    0.338560    0.079531     0.007504
AU109   AU        0.513436    0.306310    0.079647     0.007504
AU110   AU        0.514480    0.338877    0.116094     0.007504
AU111   AU        0.551606    0.302727    0.112867     0.007504
AU112   AU        0.553894    0.339175    0.080573     0.007504
NI113   NI        0.581837    0.300005    0.073208     0.004307
AU114   AU        0.589326    0.335626    0.113444     0.007504
AU115   AU        0.611093    0.294797    0.112570     0.007504
NI116   NI        0.631638    0.328613    0.088574     0.004307
AU117   AU        0.665930    0.325624    0.120697     0.007504
NI118   NI        0.696033    0.284093    0.129119     0.004307
NI119   NI        0.140264    0.434821    0.102917     0.004307
NI120   NI        0.214395    0.354682    0.098258     0.004307
NI121   NI        0.185766    0.387123    0.086890     0.004307
NI122   NI        0.251420    0.371970    0.070593     0.004307
AU123   AU        0.225779    0.402818    0.104513     0.007504
AU124   AU        0.258673    0.368872    0.122355     0.007504
AU125   AU        0.275877    0.407676    0.095805     0.007504
AU126   AU        0.293065    0.364582    0.088765     0.007504
AU127   AU        0.324875    0.402297    0.106319     0.007504
AU128   AU        0.342107    0.357836    0.099723     0.007504
AU129   AU        0.356279    0.405499    0.074674     0.007504
AU130   AU        0.383113    0.365538    0.078941     0.007504
AU131   AU        0.374102    0.400104    0.120548     0.007504
AU132   AU        0.408106    0.365128    0.114948     0.007504
AU133   AU        0.404099    0.404149    0.075044     0.007504
AU134   AU        0.440573    0.368542    0.075624     0.007504
AU135   AU        0.437806    0.402775    0.112008     0.007504
AU136   AU        0.478535    0.373439    0.113634     0.007504
AU137   AU        0.476289    0.406356    0.073069     0.007504
AU138   AU        0.516418    0.375343    0.078569     0.007504
AU139   AU        0.508794    0.411829    0.114593     0.007504
AU140   AU        0.550635    0.375106    0.114736     0.007504
AU141   AU        0.550196    0.413824    0.082195     0.007504
AU142   AU        0.588074    0.376395    0.083288     0.007504
AU143   AU        0.585966    0.411284    0.121597     0.007504
AU144   AU        0.628861    0.365203    0.116491     0.007504
AU145   AU        0.625228    0.411089    0.091715     0.007504
NI146   NI        0.667275    0.396740    0.071159     0.004307
AU147   AU        0.663627    0.404328    0.118913     0.007504
NI148   NI        0.688977    0.372965    0.101647     0.004307
NI149   NI        0.705533    0.423202    0.094584     0.004307
NI150   NI        0.736780    0.378624    0.118116     0.004307
NI151   NI        0.161610    0.475115    0.113705     0.004307
NI152   NI        0.187220    0.435071    0.091118     0.004307
NI153   NI        0.203098    0.476711    0.077225     0.004307
NI154   NI        0.235638    0.447646    0.086760     0.004307
AU155   AU        0.237096    0.478609    0.119121     0.007504
AU156   AU        0.273658    0.448701    0.114075     0.007504
AU157   AU        0.269378    0.484529    0.084419     0.007504
AU158   AU        0.308063    0.447646    0.086476     0.007504
AU159   AU        0.307646    0.486555    0.112861     0.007504
AU160   AU        0.352490    0.444374    0.107441     0.007504
AU161   AU        0.347034    0.485660    0.083424     0.007504
AU162   AU        0.379781    0.447845    0.069140     0.007504
AU163   AU        0.386400    0.481512    0.109326     0.007504
AU164   AU        0.404531    0.441183    0.109162     0.007504
AU165   AU        0.420311    0.479571    0.074697     0.007504
AU166   AU        0.438581    0.440196    0.074043     0.007504
NI167   NI        0.450162    0.476317    0.117453     0.004307
AU168   AU        0.471385    0.437246    0.111897     0.007504
AU169   AU        0.473644    0.476237    0.078189     0.007504
AU170   AU        0.511561    0.445051    0.078519     0.007504
AU171   AU        0.502789    0.472374    0.119575     0.007504
AU172   AU        0.546044    0.449209    0.116307     0.007504
AU173   AU        0.536673    0.488555    0.083754     0.007504
AU174   AU        0.585141    0.450421    0.085226     0.007504
NI175   NI        0.581632    0.483967    0.121676     0.004307
AU176   AU        0.623387    0.445634    0.123107     0.007504
NI177   NI        0.623125    0.518198    0.076272     0.004307
NI178   NI        0.664848    0.439600    0.093313     0.004307
AU179   AU        0.659037    0.478491    0.116015     0.007504
NI180   NI        0.709536    0.461718    0.123618     0.004307
NI181   NI        0.697145    0.474262    0.084554     0.004307
NI182   NI        0.733031    0.502157    0.139290     0.004307
NI183   NI        0.197563    0.509099    0.115788     0.004307
AU184   AU        0.233908    0.517843    0.084204     0.007504
AU185   AU        0.225106    0.541595    0.126260     0.007504
AU186   AU        0.269142    0.522461    0.122172     0.007504
AU187   AU        0.254705    0.562467    0.093822     0.007504
AU188   AU        0.296588    0.526768    0.083712     0.007504
AU189   AU        0.298908    0.563471    0.112797     0.007504
AU190   AU        0.339258    0.526377    0.111036     0.007504
AU191   AU        0.355390    0.555583    0.073293     0.007504
AU192   AU        0.382402    0.519924    0.085839     0.007504
AU193   AU        0.374179    0.563090    0.112877     0.007504
AU194   AU        0.422259    0.515008    0.114114     0.007504
AU195   AU        0.409476    0.561313    0.076703     0.007504
AU196   AU        0.452633    0.515797    0.078095     0.007504
AU197   AU        0.448916    0.556052    0.107815     0.007504
AU198   AU        0.472118    0.514460    0.117679     0.007504
AU199   AU        0.492424    0.549059    0.084917     0.007504
AU200   AU        0.513598    0.525070    0.114423     0.007504
AU201   AU        0.528785    0.570584    0.121238     0.007504
AU202   AU        0.558844    0.527124    0.118225     0.007504
AU203   AU        0.543533    0.540982    0.077551     0.007504
AU204   AU        0.578675    0.499857    0.080715     0.007504
AU205   AU        0.587559    0.550431    0.082414     0.007504
AU206   AU        0.607707    0.527972    0.121616     0.007504
NI207   NI        0.632287    0.549152    0.052102     0.004307
NI208   NI        0.657103    0.492682    0.069108     0.004307
AU209   AU        0.652620    0.557985    0.115730     0.007504
NI210   NI        0.690039    0.524583    0.115923     0.004307
NI211   NI        0.228580    0.593150    0.108315     0.004307
NI212   NI        0.185025    0.617109    0.123349     0.004307
NI213   NI        0.277522    0.599836    0.102741     0.004307
NI214   NI        0.264355    0.580974    0.054091     0.004307
NI215   NI        0.312758    0.570468    0.072430     0.004307
AU216   AU        0.300203    0.639080    0.126219     0.007504
AU217   AU        0.335159    0.600566    0.109307     0.007504
NI218   NI        0.329359    0.639425    0.080479     0.004307
AU219   AU        0.375582    0.598751    0.078125     0.007504
AU220   AU        0.373951    0.636511    0.108551     0.007504
AU221   AU        0.411644    0.597025    0.113693     0.007504
NI222   NI        0.416661    0.616320    0.075495     0.004307
AU223   AU        0.452015    0.594133    0.083172     0.007504
AU224   AU        0.450168    0.628493    0.113057     0.007504
AU225   AU        0.487767    0.590880    0.112347     0.007504
AU226   AU        0.491620    0.626195    0.079808     0.007504
AU227   AU        0.527228    0.589964    0.081558     0.007504
AU228   AU        0.527367    0.622960    0.116702     0.007504
AU229   AU        0.578869    0.575354    0.117116     0.007504
NI230   NI        0.559901    0.618989    0.080584     0.004307
NI231   NI        0.602307    0.597605    0.080176     0.004307
AU232   AU        0.577538    0.624585    0.129677     0.007504
AU233   AU        0.623301    0.603394    0.123587     0.007504
NI234   NI        0.659949    0.605571    0.093944     0.004307
NI235   NI        0.660681    0.638372    0.128087     0.004307
NI236   NI        0.694712    0.588816    0.112540     0.004307
NI237   NI        0.267641    0.638833    0.098416     0.004307
NI238   NI        0.312619    0.693606    0.085637     0.004307
NI239   NI        0.330637    0.672593    0.128213     0.004307
NI240   NI        0.361316    0.681677    0.091685     0.004307
NI241   NI        0.356882    0.711611    0.135705     0.004307
AU242   AU        0.420402    0.661988    0.101935     0.007504
NI243   NI        0.394819    0.706535    0.106794     0.004307
NI244   NI        0.449853    0.642437    0.064894     0.004307
NI245   NI        0.443150    0.706160    0.122259     0.004307
AU246   AU        0.486365    0.664623    0.109945     0.007504
NI247   NI        0.488691    0.678648    0.066036     0.004307
NI248   NI        0.523564    0.653171    0.080237     0.004307
NI249   NI        0.515468    0.700317    0.109906     0.004307
NI250   NI        0.554453    0.671491    0.109862     0.004307
NI251   NI        0.589411    0.701027    0.129874     0.004307
NI252   NI        0.609175    0.646177    0.093107     0.004307
NI253   NI        0.413093    0.739864    0.124419     0.004307
NI254   NI        0.476899    0.709938    0.095302     0.004307
NI255   NI        0.346084    0.086322    0.242144     0.004307
NI256   NI        0.367405    0.114533    0.210898     0.004307
NI257   NI        0.391257    0.106543    0.171026     0.004307
NI258   NI        0.405913    0.136422    0.132327     0.004307
NI259   NI        0.454155    0.112204    0.176496     0.004307
NI260   NI        0.496347    0.105297    0.172044     0.004307
NI261   NI        0.532884    0.104721    0.148356     0.004307
NI262   NI        0.524388    0.139755    0.183740     0.004307
NI263   NI        0.602610    0.155611    0.177961     0.004307
NI264   NI        0.242598    0.220717    0.170979     0.004307
NI265   NI        0.254517    0.185035    0.189890     0.004307
NI266   NI        0.288998    0.169105    0.142164     0.004307
NI267   NI        0.319394    0.137950    0.144841     0.004307
AU268   AU        0.300299    0.182140    0.204243     0.007504
AU269   AU        0.333714    0.144653    0.196260     0.007504
AU270   AU        0.326983    0.176804    0.160543     0.007504
NI271   NI        0.365848    0.142855    0.160161     0.004307
AU272   AU        0.372659    0.187520    0.170593     0.007504
AU273   AU        0.409820    0.151638    0.179061     0.007504
AU274   AU        0.414837    0.185381    0.141438     0.007504
NI275   NI        0.488527    0.146080    0.127508     0.004307
AU276   AU        0.449632    0.185623    0.178490     0.007504
AU277   AU        0.482125    0.153954    0.180004     0.007504
AU278   AU        0.485225    0.191364    0.143389     0.007504
NI279   NI        0.532338    0.164497    0.139372     0.004307
AU280   AU        0.521313    0.186851    0.176992     0.007504
AU281   AU        0.551108    0.130091    0.222503     0.007504
NI282   NI        0.558824    0.189548    0.108777     0.004307
NI283   NI        0.565816    0.134623    0.150636     0.004307
NI284   NI        0.562829    0.176522    0.163758     0.004307
NI285   NI        0.598149    0.176177    0.137073     0.004307
NI286   NI        0.638254    0.184063    0.116144     0.004307
NI287   NI        0.638557    0.181200    0.176913     0.004307
NI288   NI        0.188110    0.256882    0.151573     0.004307
NI289   NI        0.196082    0.215266    0.194522     0.004307
NI290   NI        0.150414    0.253175    0.132133     0.004307
NI291   NI        0.242082    0.245932    0.122650     0.004307
AU292   AU        0.221333    0.258998    0.179311     0.007504
AU293   AU        0.283351    0.229634    0.203012     0.007504
AU294   AU        0.277859    0.254609    0.154877     0.007504
AU295   AU        0.289457    0.208184    0.165349     0.007504
AU296   AU        0.317899    0.262143    0.185359     0.007504
AU297   AU        0.331388    0.216793    0.187326     0.007504
AU298   AU        0.345606    0.279511    0.152206     0.007504
AU299   AU        0.371422    0.241100    0.160601     0.007504
AU300   AU        0.380167    0.278416    0.192445     0.007504
AU301   AU        0.408339    0.222618    0.172238     0.007504
AU302   AU        0.414347    0.266600    0.157581     0.007504
AU303   AU        0.445622    0.226799    0.149879     0.007504
AU304   AU        0.454289    0.262073    0.184394     0.007504
AU305   AU        0.484512    0.224850    0.179907     0.007504
AU306   AU        0.478527    0.264961    0.147947     0.007504
AU307   AU        0.517345    0.228399    0.143175     0.007504
AU308   AU        0.515684    0.262651    0.182078     0.007504
AU309   AU        0.549621    0.226634    0.180134     0.007504
AU310   AU        0.548004    0.266144    0.146631     0.007504
AU311   AU        0.567370    0.221748    0.137622     0.007504
AU312   AU        0.579984    0.261904    0.181703     0.007504
AU313   AU        0.631419    0.246449    0.185147     0.007504
AU314   AU        0.605883    0.252542    0.140323     0.007504
NI315   NI        0.638304    0.213334    0.145623     0.004307
AU316   AU        0.676891    0.251285    0.170471     0.007504
NI317   NI        0.682868    0.198927    0.158507     0.004307
NI318   NI        0.703565    0.232334    0.136087     0.004307
NI319   NI        0.729706    0.253268    0.167640     0.004307
NI320   NI        0.146500    0.284531    0.178397     0.004307
NI321   NI        0.161147    0.299810    0.137491     0.004307
AU322   AU        0.151695    0.333847    0.188142     0.007504
AU323   AU        0.188235    0.296897    0.180319     0.007504
AU324   AU        0.190672    0.338365    0.152819     0.007504
AU325   AU        0.212561    0.292858    0.137874     0.007504
AU326   AU        0.227240    0.329937    0.175029     0.007504
AU327   AU        0.257404    0.295497    0.171272     0.007504
AU328   AU        0.274629    0.335654    0.155038     0.007504
AU329   AU        0.300850    0.300228    0.159555     0.007504
NI330   NI        0.316705    0.341940    0.185736     0.004307
AU331   AU        0.343284    0.307816    0.187654     0.007504
AU332   AU        0.340000    0.329457    0.140561     0.007504
AU333   AU        0.385354    0.305639    0.159491     0.007504
NI334   NI        0.384915    0.333816    0.198177     0.004307
NI335   NI        0.421582    0.304382    0.190301     0.004307
AU336   AU        0.412955    0.342749    0.157328     0.007504
AU337   AU        0.444184    0.300694    0.152674     0.007504
NI338   NI        0.445580    0.336842    0.192667     0.004307
AU339   AU        0.482819    0.301780    0.184221     0.007504
AU340   AU        0.475910    0.339093    0.148349     0.007504
AU341   AU        0.513003    0.301213    0.147968     0.007504
AU342   AU        0.513182    0.341000    0.183285     0.007504
AU343   AU        0.549851    0.301269    0.184104     0.007504
AU344   AU        0.552007    0.337393    0.149693     0.007504
AU345   AU        0.586366    0.299093    0.148928     0.007504
AU346   AU        0.585949    0.336374    0.188168     0.007504
AU347   AU        0.615963    0.295679    0.187677     0.007504
AU348   AU        0.624753    0.329403    0.151450     0.007504
AU349   AU        0.644861    0.283350    0.150654     0.007504
AU350   AU        0.667826    0.328229    0.176102     0.007504
AU351   AU        0.704507    0.296409    0.179278     0.007504
AU352   AU        0.703145    0.330814    0.146865     0.007504
NI353   NI        0.741621    0.297736    0.148432     0.004307
AU354   AU        0.739011    0.334650    0.181996     0.007504
NI355   NI        0.781931    0.294919    0.202469     0.004307
NI356   NI        0.088831    0.467412    0.183931     0.004307
NI357   NI        0.116122    0.363909    0.189480     0.004307
NI358   NI        0.125958    0.397070    0.158009     0.004307
NI359   NI        0.168367    0.371010    0.133148     0.004307
AU360   AU        0.168147    0.411655    0.184518     0.007504
AU361   AU        0.200080    0.373756    0.184857     0.007504
NI362   NI        0.178515    0.410303    0.138581     0.004307
AU363   AU        0.216998    0.383137    0.141249     0.007504
AU364   AU        0.220270    0.419149    0.177256     0.007504
AU365   AU        0.246630    0.374601    0.172190     0.007504
AU366   AU        0.256582    0.410360    0.141977     0.007504
AU367   AU        0.307470    0.369842    0.134337     0.007504
NI368   NI        0.295850    0.405921    0.173985     0.004307
NI369   NI        0.345237    0.371371    0.170066     0.004307
NI370   NI        0.335060    0.410499    0.147723     0.004307
NI371   NI        0.376414    0.364678    0.142616     0.004307
NI372   NI        0.371973    0.406263    0.168055     0.004307
AU373   AU        0.401686    0.385052    0.191612     0.007504
AU374   AU        0.413536    0.416647    0.150195     0.007504
AU375   AU        0.441490    0.376899    0.151348     0.007504
AU376   AU        0.444020    0.416393    0.189891     0.007504
AU377   AU        0.477540    0.376007    0.184703     0.007504
AU378   AU        0.474363    0.406918    0.150410     0.007504
AU379   AU        0.514660    0.375172    0.151193     0.007504
AU380   AU        0.510769    0.412440    0.187633     0.007504
AU381   AU        0.551629    0.375718    0.183265     0.007504
AU382   AU        0.546075    0.413367    0.150701     0.007504
AU383   AU        0.590763    0.367930    0.147627     0.007504
AU384   AU        0.590800    0.404871    0.173397     0.007504
AU385   AU        0.629153    0.364635    0.178476     0.007504
AU386   AU        0.629442    0.403948    0.148393     0.007504
AU387   AU        0.669106    0.367939    0.143890     0.007504
AU388   AU        0.669087    0.404114    0.168395     0.007504
AU389   AU        0.700790    0.367695    0.178370     0.007504
AU390   AU        0.707393    0.400719    0.140679     0.007504
NI391   NI        0.747208    0.342644    0.138683     0.004307
AU392   AU        0.712960    0.408590    0.194643     0.007504
AU393   AU        0.745679    0.383003    0.169681     0.007504
NI394   NI        0.744061    0.434862    0.133412     0.004307
AU395   AU        0.753400    0.431244    0.175106     0.007504
NI396   NI        0.083771    0.505465    0.209662     0.004307
AU397   AU        0.123978    0.438091    0.180071     0.007504
NI398   NI        0.121263    0.469777    0.141882     0.004307
NI399   NI        0.155919    0.445732    0.145047     0.004307
AU400   AU        0.155767    0.475712    0.179127     0.007504
AU401   AU        0.191586    0.457135    0.198411     0.007504
AU402   AU        0.197189    0.472714    0.149749     0.007504
AU403   AU        0.215708    0.435049    0.135638     0.007504
NI404   NI        0.229471    0.480952    0.206662     0.004307
AU405   AU        0.241420    0.460856    0.165200     0.007504
AU406   AU        0.274233    0.484685    0.146021     0.007504
AU407   AU        0.314398    0.446939    0.141119     0.007504
NI408   NI        0.291325    0.458836    0.181508     0.004307
AU409   AU        0.350528    0.447837    0.177273     0.007504
AU410   AU        0.348952    0.483162    0.140921     0.007504
NI411   NI        0.376399    0.444848    0.142727     0.004307
NI412   NI        0.387108    0.480896    0.175737     0.004307
AU413   AU        0.394700    0.434674    0.197154     0.007504
NI414   NI        0.413075    0.473167    0.144207     0.004307
AU415   AU        0.448506    0.453541    0.158680     0.007504
AU416   AU        0.431867    0.465979    0.200687     0.007504
AU417   AU        0.479598    0.451400    0.198367     0.007504
NI418   NI        0.483255    0.482741    0.162146     0.004307
NI419   NI        0.503446    0.439048    0.151118     0.004307
NI420   NI        0.507957    0.491151    0.199449     0.004307
AU421   AU        0.555837    0.436732    0.194922     0.007504
NI422   NI        0.529752    0.472741    0.156182     0.004307
AU423   AU        0.582318    0.450847    0.154396     0.007504
AU424   AU        0.604625    0.477164    0.194206     0.007504
AU425   AU        0.625079    0.443642    0.176583     0.007504
AU426   AU        0.618089    0.485296    0.144566     0.007504
AU427   AU        0.660593    0.445788    0.149036     0.007504
AU428   AU        0.648193    0.482601    0.182223     0.007504
AU429   AU        0.669933    0.440555    0.198199     0.007504
AU430   AU        0.688241    0.488242    0.158259     0.007504
AU431   AU        0.703606    0.441688    0.167586     0.007504
AU432   AU        0.732821    0.482397    0.180081     0.007504
NI433   NI        0.778749    0.467922    0.172676     0.004307
NI434   NI        0.797836    0.415079    0.174791     0.004307
NI435   NI        0.802194    0.501197    0.207693     0.004307
NI436   NI        0.124403    0.504747    0.173363     0.004307
NI437   NI        0.162579    0.509552    0.144842     0.004307
AU438   AU        0.152601    0.553663    0.191265     0.007504
AU439   AU        0.196360    0.507062    0.182873     0.007504
AU440   AU        0.189558    0.548071    0.157487     0.007504
AU441   AU        0.235093    0.506176    0.159784     0.007504
AU442   AU        0.227936    0.552462    0.178430     0.007504
AU443   AU        0.271326    0.535904    0.179388     0.007504
AU444   AU        0.259096    0.568013    0.139385     0.007504
NI445   NI        0.305503    0.526460    0.146756     0.004307
NI446   NI        0.305306    0.563657    0.176977     0.004307
NI447   NI        0.350077    0.501720    0.181496     0.004307
AU448   AU        0.337831    0.563826    0.146373     0.007504
AU449   AU        0.380749    0.520289    0.139622     0.007504
AU450   AU        0.381712    0.555574    0.167947     0.007504
NI451   NI        0.426986    0.510444    0.218917     0.004307
AU452   AU        0.417733    0.555131    0.140895     0.007504
NI453   NI        0.421326    0.516306    0.171109     0.004307
NI454   NI        0.456279    0.551428    0.171445     0.004307
NI455   NI        0.468625    0.502837    0.198950     0.004307
AU456   AU        0.486285    0.555848    0.138350     0.007504
NI457   NI        0.507352    0.519615    0.158953     0.004307
NI458   NI        0.526201    0.555568    0.167534     0.004307
NI459   NI        0.541607    0.510978    0.182659     0.004307
AU460   AU        0.576073    0.545797    0.161015     0.007504
AU461   AU        0.578282    0.499182    0.158936     0.007504
AU462   AU        0.610702    0.557165    0.194821     0.007504
AU463   AU        0.621021    0.520701    0.173715     0.007504
AU464   AU        0.623164    0.561957    0.146946     0.007504
AU465   AU        0.654680    0.520861    0.145027     0.007504
AU466   AU        0.659522    0.559260    0.178177     0.007504
AU467   AU        0.669798    0.517620    0.194436     0.007504
AU468   AU        0.697757    0.561276    0.147765     0.007504
AU469   AU        0.715784    0.529806    0.176419     0.007504
NI470   NI        0.740588    0.570315    0.170001     0.004307
NI471   NI        0.767369    0.517327    0.184580     0.004307
NI472   NI        0.101662    0.589487    0.228232     0.004307
NI473   NI        0.167924    0.585315    0.153991     0.004307
NI474   NI        0.141423    0.599980    0.183347     0.004307
AU475   AU        0.194899    0.585533    0.192496     0.007504
NI476   NI        0.180180    0.627286    0.170673     0.004307
AU477   AU        0.219332    0.587254    0.150539     0.007504
AU478   AU        0.224022    0.622896    0.182614     0.007504
AU479   AU        0.262384    0.586861    0.182696     0.007504
AU480   AU        0.256474    0.620024    0.142839     0.007504
AU481   AU        0.296762    0.592252    0.146407     0.007504
AU482   AU        0.296678    0.626239    0.174132     0.007504
AU483   AU        0.337216    0.598524    0.178954     0.007504
AU484   AU        0.336033    0.627436    0.145420     0.007504
AU485   AU        0.374003    0.598647    0.142011     0.007504
NI486   NI        0.372477    0.626401    0.181643     0.004307
AU487   AU        0.412029    0.592022    0.175851     0.007504
AU488   AU        0.407187    0.638096    0.141240     0.007504
AU489   AU        0.451293    0.591854    0.146390     0.007504
AU490   AU        0.438301    0.635841    0.184167     0.007504
NI491   NI        0.472725    0.604125    0.192754     0.004307
AU492   AU        0.485614    0.631059    0.143432     0.007504
AU493   AU        0.509507    0.597665    0.159011     0.007504
NI494   NI        0.510439    0.627861    0.199312     0.004307
NI495   NI        0.551835    0.594545    0.195144     0.004307
AU496   AU        0.547615    0.627369    0.164488     0.007504
AU497   AU        0.585113    0.591447    0.163309     0.007504
AU498   AU        0.589669    0.631483    0.187853     0.007504
AU499   AU        0.628489    0.597672    0.181161     0.007504
AU500   AU        0.620203    0.636982    0.154609     0.007504
AU501   AU        0.663638    0.595035    0.146277     0.007504
AU502   AU        0.663402    0.636340    0.178442     0.007504
AU503   AU        0.722506    0.582304    0.212396     0.007504
AU504   AU        0.703688    0.603696    0.173066     0.007504
NI505   NI        0.734893    0.581288    0.130475     0.004307
NI506   NI        0.746362    0.614340    0.167233     0.004307
NI507   NI        0.781638    0.557940    0.181811     0.004307
NI508   NI        0.180895    0.666788    0.195669     0.004307
NI509   NI        0.217689    0.640321    0.142631     0.004307
NI510   NI        0.231250    0.700630    0.175435     0.004307
AU511   AU        0.258902    0.661711    0.177300     0.007504
NI512   NI        0.252807    0.664387    0.134881     0.004307
NI513   NI        0.293108    0.680063    0.143301     0.004307
AU514   AU        0.282720    0.707151    0.178059     0.007504
NI515   NI        0.304909    0.665378    0.192241     0.004307
AU516   AU        0.328498    0.697798    0.172049     0.007504
AU517   AU        0.364664    0.664080    0.153228     0.007504
AU518   AU        0.378829    0.708179    0.179452     0.007504
AU519   AU        0.397154    0.661414    0.183935     0.007504
AU520   AU        0.407114    0.688869    0.145082     0.007504
AU521   AU        0.449270    0.666921    0.140677     0.007504
AU522   AU        0.434282    0.688514    0.183707     0.007504
AU523   AU        0.482313    0.665248    0.180442     0.007504
AU524   AU        0.485305    0.700872    0.143856     0.007504
AU525   AU        0.522018    0.664759    0.144873     0.007504
AU526   AU        0.511719    0.696488    0.186218     0.007504
AU527   AU        0.547422    0.671070    0.186564     0.007504
AU528   AU        0.547649    0.703827    0.151857     0.007504
AU529   AU        0.579944    0.663623    0.150035     0.007504
AU530   AU        0.587944    0.698881    0.183855     0.007504
AU531   AU        0.624464    0.666503    0.192108     0.007504
NI532   NI        0.631025    0.680312    0.144429     0.004307
NI533   NI        0.700469    0.659173    0.173625     0.004307
NI534   NI        0.693405    0.701034    0.151477     0.004307
NI535   NI        0.662382    0.693644    0.180612     0.004307
NI536   NI        0.262123    0.757137    0.177307     0.004307
NI537   NI        0.317209    0.724116    0.130673     0.004307
NI538   NI        0.314970    0.740816    0.167728     0.004307
AU539   AU        0.342849    0.728557    0.209192     0.007504
NI540   NI        0.361004    0.747343    0.164391     0.004307
NI541   NI        0.339858    0.785538    0.170503     0.004307
AU542   AU        0.423960    0.733508    0.169380     0.007504
NI543   NI        0.399068    0.769781    0.163921     0.004307
NI544   NI        0.460303    0.744914    0.138090     0.004307
NI545   NI        0.461727    0.771396    0.173440     0.004307
AU546   AU        0.473180    0.725758    0.185262     0.007504
NI547   NI        0.510281    0.792427    0.167748     0.004307
NI548   NI        0.509301    0.738197    0.136825     0.004307
NI549   NI        0.511400    0.757122    0.190945     0.004307
AU550   AU        0.548179    0.720806    0.194257     0.007504
NI551   NI        0.548961    0.753653    0.160177     0.004307
NI552   NI        0.598200    0.740950    0.195554     0.004307
NI553   NI        0.620976    0.715170    0.165239     0.004307
NI554   NI        0.381727    0.792142    0.200803     0.004307
NI555   NI        0.490239    0.807199    0.206713     0.004307
NI556   NI        0.408828    0.077763    0.200214     0.004307
NI557   NI        0.449357    0.047149    0.262220     0.004307
NI558   NI        0.517357    0.054049    0.265284     0.004307
NI559   NI        0.238846    0.142883    0.210146     0.004307
NI560   NI        0.251598    0.094030    0.254959     0.004307
NI561   NI        0.276510    0.098649    0.212390     0.004307
NI562   NI        0.316140    0.078420    0.274829     0.004307
NI563   NI        0.334943    0.028295    0.288633     0.004307
NI564   NI        0.307885    0.114869    0.235444     0.004307
NI565   NI        0.381680    0.061770    0.250982     0.004307
AU566   AU        0.391987    0.132622    0.252260     0.007504
AU567   AU        0.421847    0.080525    0.246402     0.007504
AU568   AU        0.412238    0.118753    0.214955     0.007504
NI569   NI        0.464138    0.076531    0.206867     0.004307
AU570   AU        0.441065    0.125574    0.254985     0.007504
AU571   AU        0.477129    0.089165    0.256997     0.007504
AU572   AU        0.484297    0.121772    0.217803     0.007504
NI573   NI        0.514283    0.091539    0.221251     0.004307
AU574   AU        0.512997    0.124688    0.258288     0.007504
AU575   AU        0.553229    0.092654    0.254897     0.007504
NI576   NI        0.584378    0.103072    0.192350     0.004307
AU577   AU        0.587111    0.132520    0.259132     0.007504
NI578   NI        0.622180    0.058030    0.288260     0.004307
NI579   NI        0.600335    0.140273    0.217596     0.004307
NI580   NI        0.628366    0.108903    0.268306     0.004307
NI581   NI        0.221431    0.181393    0.213929     0.004307
NI582   NI        0.223980    0.114700    0.278158     0.004307
NI583   NI        0.157535    0.238795    0.177109     0.004307
NI584   NI        0.279635    0.147564    0.178938     0.004307
AU585   AU        0.212323    0.197859    0.287899     0.007504
AU586   AU        0.247536    0.160869    0.268079     0.007504
AU587   AU        0.263691    0.194938    0.236836     0.007504
AU588   AU        0.277871    0.146191    0.230668     0.007504
AU589   AU        0.302830    0.171758    0.258863     0.007504
AU590   AU        0.342133    0.144943    0.243568     0.007504
AU591   AU        0.351824    0.190707    0.217352     0.007504
AU592   AU        0.376622    0.156267    0.210545     0.007504
NI593   NI        0.387329    0.204551    0.249199     0.004307
AU594   AU        0.418766    0.174250    0.253466     0.007504
AU595   AU        0.407556    0.191522    0.207678     0.007504
AU596   AU        0.445716    0.154757    0.215448     0.007504
AU597   AU        0.455067    0.207060    0.249321     0.007504
AU598   AU        0.474674    0.161776    0.256519     0.007504
AU599   AU        0.480982    0.190657    0.216170     0.007504
AU600   AU        0.513278    0.162464    0.221819     0.007504
AU601   AU        0.507130    0.199253    0.258978     0.007504
AU602   AU        0.549688    0.169148    0.256606     0.007504
AU603   AU        0.557493    0.185696    0.210171     0.007504
AU604   AU        0.598209    0.213191    0.171077     0.007504
AU605   AU        0.596996    0.183771    0.243233     0.007504
AU606   AU        0.631552    0.150102    0.246058     0.007504
AU607   AU        0.637101    0.206063    0.217503     0.007504
NI608   NI        0.670754    0.141201    0.229459     0.004307
AU609   AU        0.671199    0.184857    0.247409     0.007504
NI610   NI        0.706298    0.138411    0.260608     0.004307
NI611   NI        0.672733    0.173364    0.199681     0.004307
NI612   NI        0.715444    0.183726    0.237102     0.004307
NI613   NI        0.085801    0.254651    0.263042     0.004307
NI614   NI        0.131218    0.218187    0.257012     0.004307
NI615   NI        0.127838    0.254429    0.215109     0.004307
NI616   NI        0.154944    0.218674    0.215845     0.004307
AU617   AU        0.156812    0.257045    0.251825     0.007504
AU618   AU        0.196170    0.221699    0.248620     0.007504
AU619   AU        0.190353    0.258918    0.214584     0.007504
AU620   AU        0.232691    0.231702    0.213940     0.007504
AU621   AU        0.229881    0.261715    0.246702     0.007504
AU622   AU        0.268745    0.239522    0.248449     0.007504
AU623   AU        0.263374    0.267258    0.206245     0.007504
AU624   AU        0.311943    0.215765    0.235721     0.007504
NI625   NI        0.304974    0.265784    0.232231     0.004307
NI626   NI        0.356656    0.231518    0.248562     0.004307
AU627   AU        0.345377    0.280168    0.228614     0.007504
AU628   AU        0.380257    0.233481    0.209860     0.007504
AU629   AU        0.391149    0.279824    0.254263     0.007504
NI630   NI        0.414144    0.240201    0.246684     0.004307
NI631   NI        0.421168    0.265040    0.214169     0.004307
AU632   AU        0.444497    0.225435    0.206219     0.007504
NI633   NI        0.443261    0.272576    0.254262     0.004307
NI634   NI        0.484457    0.237989    0.266178     0.004307
AU635   AU        0.483163    0.255367    0.221721     0.007504
AU636   AU        0.520779    0.222162    0.214753     0.007504
NI637   NI        0.522058    0.253226    0.255989     0.004307
AU638   AU        0.559216    0.220722    0.252050     0.007504
AU639   AU        0.552727    0.261464    0.216337     0.007504
AU640   AU        0.589151    0.227310    0.211689     0.007504
AU641   AU        0.578963    0.266484    0.259619     0.007504
AU642   AU        0.611119    0.229528    0.258599     0.007504
AU643   AU        0.615954    0.267108    0.226198     0.007504
AU644   AU        0.659650    0.245052    0.227599     0.007504
NI645   NI        0.664279    0.285485    0.240780     0.004307
AU646   AU        0.701007    0.223253    0.252325     0.007504
AU647   AU        0.702076    0.256821    0.212644     0.007504
NI648   NI        0.687472    0.214682    0.204045     0.004307
AU649   AU        0.734914    0.259858    0.254209     0.007504
NI650   NI        0.754791    0.224035    0.246571     0.004307
NI651   NI        0.755354    0.255952    0.212122     0.004307
NI652   NI        0.790325    0.250106    0.244398     0.004307
NI653   NI        0.082656    0.332136    0.254500     0.004307
AU654   AU        0.118408    0.290006    0.254625     0.007504
AU655   AU        0.119151    0.330199    0.224840     0.007504
AU656   AU        0.152250    0.295238    0.219605     0.007504
AU657   AU        0.160337    0.332879    0.248603     0.007504
AU658   AU        0.194396    0.296098    0.247733     0.007504
AU659   AU        0.196034    0.336678    0.214587     0.007504
AU660   AU        0.228353    0.297020    0.212119     0.007504
AU661   AU        0.230451    0.332826    0.248579     0.007504
AU662   AU        0.265235    0.294691    0.247661     0.007504
AU663   AU        0.261860    0.333340    0.204281     0.007504
AU664   AU        0.301415    0.300229    0.211413     0.007504
NI665   NI        0.286638    0.335918    0.244025     0.004307
NI666   NI        0.324897    0.320080    0.247810     0.004307
NI667   NI        0.325335    0.356227    0.224323     0.004307
NI668   NI        0.365045    0.323726    0.232650     0.004307
NI669   NI        0.389802    0.343763    0.260128     0.004307
NI670   NI        0.421275    0.309701    0.263593     0.004307
NI671   NI        0.418657    0.335915    0.230054     0.004307
NI672   NI        0.456228    0.298919    0.216869     0.004307
AU673   AU        0.448876    0.343587    0.260503     0.007504
NI674   NI        0.481304    0.295937    0.262456     0.004307
AU675   AU        0.481263    0.334355    0.222505     0.007504
AU676   AU        0.515983    0.293834    0.224174     0.007504
AU677   AU        0.519123    0.328920    0.258888     0.007504
NI678   NI        0.547566    0.298264    0.258023     0.004307
AU679   AU        0.546469    0.336672    0.218238     0.007504
AU680   AU        0.579505    0.301957    0.224250     0.007504
NI681   NI        0.593642    0.344064    0.235876     0.004307
NI682   NI        0.628393    0.305120    0.255478     0.004307
NI683   NI        0.647211    0.339937    0.219443     0.004307
AU684   AU        0.661950    0.287361    0.198181     0.007504
NI685   NI        0.661948    0.333136    0.258548     0.004307
AU686   AU        0.706246    0.298735    0.255672     0.007504
AU687   AU        0.700696    0.335617    0.216739     0.007504
AU688   AU        0.735879    0.295815    0.215189     0.007504
AU689   AU        0.734504    0.332445    0.254534     0.007504
AU690   AU        0.770106    0.294111    0.255467     0.007504
AU691   AU        0.768832    0.330747    0.220936     0.007504
AU692   AU        0.801240    0.332846    0.260391     0.007504
NI693   NI        0.058516    0.407926    0.289467     0.004307
NI694   NI        0.088424    0.371202    0.229807     0.004307
AU695   AU        0.090929    0.406671    0.251219     0.007504
AU696   AU        0.125615    0.369334    0.252112     0.007504
AU697   AU        0.126696    0.406639    0.217989     0.007504
AU698   AU        0.163927    0.372596    0.218419     0.007504
AU699   AU        0.163423    0.409519    0.255008     0.007504
AU700   AU        0.192775    0.370591    0.250896     0.007504
AU701   AU        0.200190    0.412498    0.222341     0.007504
NI702   NI        0.236314    0.374170    0.219924     0.004307
NI703   NI        0.209750    0.421240    0.268956     0.004307
NI704   NI        0.251841    0.391017    0.255472     0.004307
NI705   NI        0.261544    0.422456    0.208617     0.004307
NI706   NI        0.286157    0.368122    0.218621     0.004307
NI707   NI        0.286576    0.424607    0.249719     0.004307
NI708   NI        0.350261    0.388357    0.255926     0.004307
NI709   NI        0.344752    0.400643    0.207036     0.004307
NI710   NI        0.365788    0.364631    0.217724     0.004307
NI711   NI        0.374751    0.425583    0.240982     0.004307
AU712   AU        0.397072    0.387727    0.244586     0.007504
NI713   NI        0.423062    0.418236    0.225734     0.004307
AU714   AU        0.441588    0.374846    0.220111     0.007504
AU715   AU        0.446251    0.396502    0.264821     0.007504
AU716   AU        0.491782    0.370820    0.260680     0.007504
AU717   AU        0.476148    0.406657    0.226301     0.007504
AU718   AU        0.516647    0.375770    0.218458     0.007504
NI719   NI        0.532624    0.412611    0.269924     0.004307
NI720   NI        0.541270    0.365045    0.257842     0.004307
NI721   NI        0.553002    0.409071    0.228002     0.004307
NI722   NI        0.600864    0.379139    0.216505     0.004307
NI723   NI        0.581143    0.376684    0.271142     0.004307
NI724   NI        0.622375    0.354869    0.276111     0.004307
NI725   NI        0.632319    0.400267    0.199807     0.004307
NI726   NI        0.674606    0.382959    0.212529     0.004307
NI727   NI        0.663903    0.408466    0.271898     0.004307
AU728   AU        0.700624    0.371265    0.257343     0.007504
NI729   NI        0.697321    0.411569    0.236706     0.004307
AU730   AU        0.737247    0.370558    0.217495     0.007504
AU731   AU        0.737458    0.405311    0.251804     0.007504
AU732   AU        0.771981    0.369010    0.250645     0.007504
AU733   AU        0.765076    0.411343    0.213930     0.007504
NI734   NI        0.810368    0.360267    0.218871     0.004307
AU735   AU        0.800133    0.407075    0.251651     0.007504
NI736   NI        0.845785    0.360981    0.267106     0.004307
NI737   NI        0.038923    0.419099    0.232208     0.004307
NI738   NI        0.083384    0.442436    0.222368     0.004307
AU739   AU        0.100639    0.486590    0.251509     0.007504
AU740   AU        0.125411    0.444006    0.256144     0.007504
AU741   AU        0.121514    0.475174    0.214708     0.007504
AU742   AU        0.154776    0.441904    0.219774     0.007504
AU743   AU        0.153724    0.483006    0.254320     0.007504
NI744   NI        0.183917    0.449867    0.251090     0.004307
AU745   AU        0.195633    0.498769    0.232004     0.007504
NI746   NI        0.224589    0.451707    0.239064     0.004307
NI747   NI        0.235510    0.498757    0.262601     0.004307
NI748   NI        0.269574    0.464870    0.233974     0.004307
NI749   NI        0.270977    0.494654    0.193492     0.004307
NI750   NI        0.314566    0.439589    0.209239     0.004307
NI751   NI        0.311808    0.492102    0.235204     0.004307
NI752   NI        0.315328    0.451645    0.267641     0.004307
NI753   NI        0.345509    0.517116    0.231520     0.004307
NI754   NI        0.353816    0.469087    0.215774     0.004307
NI755   NI        0.363250    0.462906    0.258059     0.004307
AU756   AU        0.408959    0.426425    0.267777     0.007504
AU757   AU        0.406661    0.468485    0.240589     0.007504
AU758   AU        0.450488    0.445803    0.247499     0.007504
NI759   NI        0.465955    0.514563    0.237800     0.004307
AU760   AU        0.488445    0.421327    0.269059     0.007504
NI761   NI        0.508561    0.484560    0.241274     0.004307
NI762   NI        0.536930    0.447681    0.241380     0.004307
NI763   NI        0.538880    0.495762    0.268290     0.004307
NI764   NI        0.577690    0.417318    0.273712     0.004307
NI765   NI        0.583806    0.461481    0.242347     0.004307
NI766   NI        0.599709    0.427040    0.218057     0.004307
NI767   NI        0.604436    0.497599    0.240720     0.004307
NI768   NI        0.619307    0.438379    0.257907     0.004307
AU769   AU        0.643765    0.473289    0.229369     0.007504
NI770   NI        0.652120    0.423175    0.234526     0.004307
NI771   NI        0.646759    0.460516    0.281240     0.004307
NI772   NI        0.706126    0.443170    0.264724     0.004307
AU773   AU        0.692990    0.481040    0.210534     0.007504
AU774   AU        0.729600    0.446334    0.222276     0.007504
AU775   AU        0.733249    0.482763    0.257275     0.007504
AU776   AU        0.767632    0.444456    0.252703     0.007504
AU777   AU        0.765178    0.481953    0.219186     0.007504
AU778   AU        0.802651    0.446251    0.215285     0.007504
AU779   AU        0.803550    0.482359    0.252904     0.007504
NI780   NI        0.829922    0.440736    0.256030     0.004307
NI781   NI        0.053588    0.474581    0.233320     0.004307
NI782   NI        0.078499    0.527432    0.246601     0.004307
NI783   NI        0.092566    0.561203    0.269050     0.004307
AU784   AU        0.126397    0.528636    0.255528     0.007504
NI785   NI        0.104474    0.543167    0.208561     0.004307
AU786   AU        0.156473    0.508958    0.213264     0.007504
AU787   AU        0.173237    0.544579    0.247024     0.007504
NI788   NI        0.193378    0.486708    0.284237     0.004307
AU789   AU        0.191065    0.544785    0.208142     0.007504
AU790   AU        0.236352    0.521806    0.210895     0.007504
NI791   NI        0.225903    0.540808    0.249278     0.004307
NI792   NI        0.271436    0.520903    0.252576     0.004307
NI793   NI        0.274202    0.557321    0.220813     0.004307
NI794   NI        0.309534    0.540046    0.244354     0.004307
NI795   NI        0.286552    0.525057    0.293568     0.004307
NI796   NI        0.345319    0.541885    0.267904     0.004307
NI797   NI        0.344932    0.549138    0.195547     0.004307
NI798   NI        0.383931    0.505484    0.216140     0.004307
NI799   NI        0.385632    0.546261    0.235320     0.004307
NI800   NI        0.407779    0.504902    0.258835     0.004307
AU801   AU        0.419736    0.552974    0.202779     0.007504
NI802   NI        0.426803    0.541580    0.247120     0.004307
NI803   NI        0.450504    0.572119    0.272793     0.004307
NI804   NI        0.480249    0.534268    0.272381     0.004307
NI805   NI        0.462142    0.560901    0.213161     0.004307
NI806   NI        0.495236    0.533891    0.199840     0.004307
AU807   AU        0.527705    0.529904    0.232434     0.007504
NI808   NI        0.579794    0.518342    0.268917     0.004307
AU809   AU        0.560584    0.555211    0.208114     0.007504
NI810   NI        0.581522    0.512283    0.204798     0.004307
NI811   NI        0.582192    0.563649    0.276248     0.004307
NI812   NI        0.635369    0.516178    0.267588     0.004307
NI813   NI        0.604275    0.547098    0.242394     0.004307
NI814   NI        0.665170    0.512737    0.237502     0.004307
NI815   NI        0.662864    0.562004    0.256901     0.004307
NI816   NI        0.705396    0.519322    0.257503     0.004307
AU817   AU        0.690927    0.550727    0.220712     0.007504
AU818   AU        0.728612    0.517421    0.220024     0.007504
AU819   AU        0.731200    0.553315    0.252496     0.007504
AU820   AU        0.766294    0.518256    0.254169     0.007504
AU821   AU        0.762990    0.553117    0.218891     0.007504
NI822   NI        0.813482    0.547413    0.218258     0.004307
NI823   NI        0.793958    0.559529    0.251667     0.004307
NI824   NI        0.837208    0.537091    0.273933     0.004307
NI825   NI        0.063439    0.598893    0.282423     0.004307
AU826   AU        0.134650    0.571027    0.256842     0.007504
NI827   NI        0.140088    0.624824    0.222870     0.004307
AU828   AU        0.159519    0.587085    0.224856     0.007504
AU829   AU        0.156570    0.612461    0.269337     0.007504
AU830   AU        0.196200    0.580289    0.258240     0.007504
AU831   AU        0.201097    0.617964    0.228059     0.007504
AU832   AU        0.230632    0.579352    0.225493     0.007504
AU833   AU        0.235232    0.609547    0.266555     0.007504
NI834   NI        0.255641    0.563349    0.270824     0.004307
AU835   AU        0.258629    0.620068    0.219581     0.007504
NI836   NI        0.324387    0.580832    0.226313     0.004307
NI837   NI        0.283384    0.604584    0.248555     0.004307
AU838   AU        0.362339    0.581092    0.260222     0.007504
AU839   AU        0.348786    0.620415    0.223746     0.007504
AU840   AU        0.373689    0.581975    0.208762     0.007504
AU841   AU        0.381352    0.619973    0.264946     0.007504
AU842   AU        0.410201    0.580999    0.244205     0.007504
NI843   NI        0.401065    0.621817    0.221574     0.004307
NI844   NI        0.453235    0.599997    0.230938     0.004307
NI845   NI        0.430697    0.620275    0.263589     0.004307
NI846   NI        0.504211    0.567317    0.254559     0.004307
NI847   NI        0.470159    0.638667    0.224336     0.004307
NI848   NI        0.509200    0.575308    0.204049     0.004307
NI849   NI        0.511475    0.614884    0.244993     0.004307
NI850   NI        0.550552    0.584056    0.250420     0.004307
AU851   AU        0.555092    0.632747    0.216748     0.007504
AU852   AU        0.591349    0.593750    0.219171     0.007504
NI853   NI        0.590100    0.631660    0.251462     0.004307
NI854   NI        0.628011    0.594693    0.255792     0.004307
AU855   AU        0.627675    0.630719    0.217798     0.007504
AU856   AU        0.670634    0.595234    0.210840     0.007504
AU857   AU        0.666634    0.630013    0.248444     0.007504
AU858   AU        0.702455    0.593998    0.250356     0.007504
AU859   AU        0.702521    0.630175    0.215548     0.007504
NI860   NI        0.767847    0.613578    0.204681     0.004307
AU861   AU        0.737367    0.630948    0.252861     0.007504
AU862   AU        0.760514    0.593358    0.249003     0.007504
NI863   NI        0.781274    0.657970    0.191577     0.004307
NI864   NI        0.785409    0.635334    0.240332     0.004307
NI865   NI        0.128294    0.680461    0.260542     0.004307
NI866   NI        0.171162    0.656867    0.241594     0.004307
NI867   NI        0.174571    0.698474    0.249958     0.004307
AU868   AU        0.209475    0.650839    0.263430     0.007504
NI869   NI        0.205835    0.703520    0.210140     0.004307
AU870   AU        0.229845    0.659141    0.217289     0.007504
AU871   AU        0.237075    0.695771    0.249531     0.007504
AU872   AU        0.265314    0.653169    0.257176     0.007504
AU873   AU        0.276818    0.684447    0.218537     0.007504
AU874   AU        0.309856    0.648125    0.232017     0.007504
AU875   AU        0.305679    0.678087    0.274330     0.007504
AU876   AU        0.346838    0.655122    0.260655     0.007504
AU877   AU        0.321338    0.698717    0.230381     0.007504
AU878   AU        0.353575    0.667485    0.205808     0.007504
AU879   AU        0.362007    0.702862    0.253563     0.007504
AU880   AU        0.397826    0.663687    0.262735     0.007504
AU881   AU        0.398004    0.694306    0.222270     0.007504
NI882   NI        0.431013    0.656030    0.225959     0.004307
AU883   AU        0.434722    0.694218    0.260698     0.007504
NI884   NI        0.466431    0.651088    0.264972     0.004307
AU885   AU        0.470291    0.689638    0.222020     0.007504
AU886   AU        0.510821    0.661331    0.222273     0.007504
AU887   AU        0.506147    0.687387    0.258327     0.007504
AU888   AU        0.539576    0.649509    0.261334     0.007504
AU889   AU        0.545234    0.688067    0.226660     0.007504
AU890   AU        0.588335    0.668861    0.225023     0.007504
NI891   NI        0.600038    0.695786    0.259098     0.004307
AU892   AU        0.626919    0.664349    0.247721     0.007504
AU893   AU        0.628973    0.706219    0.216044     0.007504
AU894   AU        0.667263    0.665972    0.215190     0.007504
AU895   AU        0.663408    0.699557    0.247876     0.007504
AU896   AU        0.700530    0.663971    0.252786     0.007504
NI897   NI        0.699771    0.696802    0.205367     0.004307
NI898   NI        0.740656    0.657596    0.208523     0.004307
NI899   NI        0.740625    0.711196    0.280527     0.004307
NI900   NI        0.762324    0.672116    0.256415     0.004307
NI901   NI        0.244823    0.758315    0.251113     0.004307
AU902   AU        0.252109    0.728449    0.214322     0.007504
NI903   NI        0.210022    0.737953    0.243820     0.004307
AU904   AU        0.281028    0.720404    0.256229     0.007504
NI905   NI        0.268707    0.784702    0.216943     0.004307
AU906   AU        0.296612    0.739244    0.211126     0.007504
NI907   NI        0.291287    0.767521    0.249338     0.004307
AU908   AU        0.329215    0.739114    0.250547     0.007504
NI909   NI        0.332016    0.776022    0.213725     0.004307
AU910   AU        0.391803    0.744574    0.204451     0.007504
AU911   AU        0.382334    0.774776    0.244465     0.007504
AU912   AU        0.404129    0.732922    0.255481     0.007504
NI913   NI        0.429927    0.768425    0.202722     0.004307
AU914   AU        0.435817    0.727757    0.218661     0.007504
AU915   AU        0.436217    0.770802    0.249344     0.007504
AU916   AU        0.471672    0.726461    0.255983     0.007504
AU917   AU        0.473860    0.758051    0.222618     0.007504
AU918   AU        0.508640    0.723320    0.222946     0.007504
AU919   AU        0.514209    0.761147    0.253685     0.007504
AU920   AU        0.543090    0.724007    0.259938     0.007504
AU921   AU        0.548762    0.755682    0.219133     0.007504
AU922   AU        0.584175    0.720287    0.231202     0.007504
AU923   AU        0.592745    0.769606    0.238381     0.007504
AU924   AU        0.628520    0.739411    0.249744     0.007504
NI925   NI        0.636184    0.759659    0.205517     0.004307
NI926   NI        0.667556    0.729841    0.208255     0.004307
NI927   NI        0.670615    0.764384    0.244986     0.004307
NI928   NI        0.704614    0.726065    0.246702     0.004307
NI929   NI        0.307766    0.814254    0.218780     0.004307
NI930   NI        0.337074    0.788830    0.253476     0.004307
NI931   NI        0.366152    0.823806    0.256746     0.004307
NI932   NI        0.365413    0.862259    0.349241     0.004307
NI933   NI        0.407951    0.816612    0.260799     0.004307
NI934   NI        0.444446    0.804542    0.215458     0.004307
NI935   NI        0.455630    0.839704    0.250513     0.004307
AU936   AU        0.480685    0.802062    0.249760     0.007504
NI937   NI        0.547342    0.810823    0.213703     0.004307
NI938   NI        0.540023    0.830076    0.291645     0.004307
NI939   NI        0.549927    0.789282    0.250913     0.004307
NI940   NI        0.625858    0.797390    0.251712     0.004307
NI941   NI        0.288786    0.038877    0.343206     0.004307
AU942   AU        0.310661    0.109126    0.306698     0.007504
NI943   NI        0.379517    0.021550    0.307226     0.004307
NI944   NI        0.412002    0.055462    0.291858     0.004307
NI945   NI        0.446422    0.042531    0.323106     0.004307
NI946   NI        0.483367    0.049377    0.290121     0.004307
NI947   NI        0.516940    0.048745    0.322323     0.004307
NI948   NI        0.549678    0.050907    0.292420     0.004307
NI949   NI        0.587039    0.062378    0.329551     0.004307
NI950   NI        0.192169    0.165898    0.250692     0.004307
NI951   NI        0.214767    0.101890    0.329129     0.004307
NI952   NI        0.244370    0.073981    0.351387     0.004307
AU953   AU        0.280618    0.126454    0.273853     0.007504
NI954   NI        0.236304    0.076140    0.301176     0.004307
AU955   AU        0.294147    0.132121    0.349549     0.007504
NI956   NI        0.320245    0.065674    0.322218     0.004307
AU957   AU        0.353887    0.111596    0.275587     0.007504
NI958   NI        0.369587    0.064481    0.309635     0.004307
AU959   AU        0.359031    0.106054    0.320744     0.007504
AU960   AU        0.404224    0.089075    0.328788     0.007504
AU961   AU        0.394156    0.094993    0.287729     0.007504
AU962   AU        0.441071    0.087276    0.291725     0.007504
AU963   AU        0.443870    0.119783    0.328256     0.007504
AU964   AU        0.480656    0.081493    0.324973     0.007504
AU965   AU        0.476867    0.123269    0.291823     0.007504
AU966   AU        0.513308    0.086782    0.292839     0.007504
AU967   AU        0.513738    0.123057    0.326293     0.007504
AU968   AU        0.551220    0.088583    0.324896     0.007504
AU969   AU        0.549416    0.129551    0.293016     0.007504
NI970   NI        0.588327    0.094135    0.287509     0.004307
AU971   AU        0.587719    0.129570    0.327475     0.007504
AU972   AU        0.625569    0.099625    0.319817     0.007504
AU973   AU        0.625364    0.144023    0.296022     0.007504
AU974   AU        0.664132    0.136162    0.330783     0.007504
NI975   NI        0.674620    0.101385    0.294276     0.004307
NI976   NI        0.125930    0.210889    0.302224     0.004307
NI977   NI        0.141552    0.162198    0.330423     0.004307
AU978   AU        0.149027    0.201025    0.349150     0.007504
AU979   AU        0.187245    0.178239    0.326804     0.007504
NI980   NI        0.166762    0.175916    0.280751     0.004307
AU981   AU        0.226154    0.151180    0.312029     0.007504
AU982   AU        0.237652    0.193971    0.333007     0.007504
AU983   AU        0.273993    0.161348    0.312285     0.007504
AU984   AU        0.272313    0.202215    0.285800     0.007504
NI985   NI        0.326531    0.143625    0.283741     0.004307
NI986   NI        0.315456    0.188068    0.298510     0.004307
NI987   NI        0.331590    0.143667    0.328504     0.004307
AU988   AU        0.346809    0.188858    0.265334     0.007504
NI989   NI        0.376712    0.160372    0.281469     0.004307
NI990   NI        0.355225    0.186976    0.330339     0.004307
AU991   AU        0.396878    0.137576    0.315083     0.007504
NI992   NI        0.401492    0.225559    0.295318     0.004307
AU993   AU        0.436812    0.156445    0.293614     0.007504
NI994   NI        0.442146    0.190891    0.334308     0.004307
AU995   AU        0.476504    0.157088    0.331668     0.007504
AU996   AU        0.473517    0.195270    0.298076     0.007504
AU997   AU        0.509681    0.160557    0.294505     0.007504
AU998   AU        0.509380    0.195695    0.333637     0.007504
AU999   AU        0.546987    0.162020    0.329350     0.007504
AU1000   AU        0.542859    0.198804    0.294532     0.007504
AU1001   AU        0.584575    0.169285    0.290557     0.007504
AU1002   AU        0.580483    0.197196    0.330402     0.007504
AU1003   AU        0.627438    0.173191    0.339802     0.007504
AU1004   AU        0.633480    0.190571    0.277862     0.007504
AU1005   AU        0.667790    0.149032    0.281260     0.007504
AU1006   AU        0.668214    0.184778    0.319892     0.007504
NI1007   NI        0.703929    0.159861    0.332145     0.004307
AU1008   AU        0.705649    0.182751    0.286576     0.007504
NI1009   NI        0.729741    0.144049    0.300718     0.004307
AU1010   AU        0.734584    0.190463    0.327882     0.007504
NI1011   NI        0.775661    0.171957    0.316327     0.004307
NI1012   NI        0.094174    0.253932    0.328845     0.004307
AU1013   AU        0.128805    0.259739    0.360879     0.007504
AU1014   AU        0.125799    0.256372    0.290963     0.007504
AU1015   AU        0.165546    0.222770    0.291360     0.007504
AU1016   AU        0.164695    0.259035    0.323352     0.007504
AU1017   AU        0.203234    0.229881    0.323047     0.007504
AU1018   AU        0.194777    0.261123    0.283667     0.007504
NI1019   NI        0.252894    0.231553    0.315766     0.004307
NI1020   NI        0.230418    0.268628    0.320849     0.004307
NI1021   NI        0.283389    0.205774    0.335293     0.004307
NI1022   NI        0.257417    0.262285    0.285849     0.004307
NI1023   NI        0.310260    0.236982    0.281334     0.004307
NI1024   NI        0.281772    0.261338    0.341103     0.004307
NI1025   NI        0.315462    0.234212    0.324546     0.004307
NI1026   NI        0.348385    0.258723    0.280219     0.004307
NI1027   NI        0.357182    0.223041    0.301293     0.004307
NI1028   NI        0.349608    0.277572    0.322096     0.004307
NI1029   NI        0.396126    0.214703    0.342565     0.004307
NI1030   NI        0.384017    0.257921    0.313264     0.004307
NI1031   NI        0.449047    0.235493    0.289259     0.004307
NI1032   NI        0.450329    0.266309    0.336013     0.004307
AU1033   AU        0.475073    0.229104    0.334733     0.007504
NI1034   NI        0.471362    0.275872    0.301738     0.004307
AU1035   AU        0.507765    0.233753    0.300585     0.007504
AU1036   AU        0.507635    0.266046    0.337440     0.007504
AU1037   AU        0.543860    0.231845    0.334291     0.007504
AU1038   AU        0.545164    0.270292    0.298535     0.007504
AU1039   AU        0.578414    0.234537    0.296601     0.007504
AU1040   AU        0.580733    0.264141    0.335661     0.007504
AU1041   AU        0.626519    0.218966    0.317345     0.007504
NI1042   NI        0.622484    0.272648    0.286126     0.004307
AU1043   AU        0.657357    0.238008    0.278317     0.007504
NI1044   NI        0.632637    0.264737    0.329855     0.004307
AU1045   AU        0.671830    0.237538    0.325742     0.007504
AU1046   AU        0.699144    0.262051    0.290185     0.007504
AU1047   AU        0.734147    0.224642    0.289320     0.007504
AU1048   AU        0.734431    0.259870    0.324137     0.007504
AU1049   AU        0.769891    0.224123    0.323800     0.007504
AU1050   AU        0.770861    0.257563    0.289633     0.007504
NI1051   NI        0.809640    0.256408    0.327240     0.004307
NI1052   NI        0.063474    0.282821    0.324191     0.004307
NI1053   NI        0.038027    0.322228    0.314286     0.004307
NI1054   NI        0.090477    0.293794    0.290056     0.004307
AU1055   AU        0.087436    0.326607    0.321934     0.007504
AU1056   AU        0.128066    0.295643    0.323232     0.007504
AU1057   AU        0.124390    0.331803    0.286250     0.007504
AU1058   AU        0.159223    0.294700    0.283775     0.007504
AU1059   AU        0.160839    0.330249    0.321310     0.007504
AU1060   AU        0.194982    0.296203    0.320246     0.007504
AU1061   AU        0.194563    0.330344    0.285308     0.007504
AU1062   AU        0.229992    0.297343    0.283541     0.007504
NI1063   NI        0.273848    0.342215    0.320928     0.004307
NI1064   NI        0.292966    0.302380    0.315670     0.004307
NI1065   NI        0.270969    0.320906    0.280335     0.004307
NI1066   NI        0.308913    0.282653    0.270898     0.004307
NI1067   NI        0.314853    0.336838    0.290334     0.004307
NI1068   NI        0.344843    0.328984    0.333007     0.004307
NI1069   NI        0.346607    0.310251    0.287145     0.004307
NI1070   NI        0.386271    0.300940    0.305663     0.004307
NI1071   NI        0.379217    0.347607    0.306787     0.004307
NI1072   NI        0.390074    0.320067    0.347366     0.004307
NI1073   NI        0.429037    0.331122    0.301651     0.004307
NI1074   NI        0.421346    0.269004    0.295550     0.004307
NI1075   NI        0.436463    0.311316    0.338711     0.004307
NI1076   NI        0.478149    0.308416    0.337581     0.004307
NI1077   NI        0.470826    0.328626    0.300294     0.004307
NI1078   NI        0.507879    0.302805    0.298267     0.004307
NI1079   NI        0.511070    0.333564    0.336144     0.004307
AU1080   AU        0.545833    0.298889    0.338380     0.007504
NI1081   NI        0.547024    0.324666    0.298652     0.004307
NI1082   NI        0.587920    0.314890    0.270400     0.004307
NI1083   NI        0.587206    0.327441    0.343214     0.004307
NI1084   NI        0.619688    0.301693    0.350545     0.004307
AU1085   AU        0.607698    0.390828    0.305756     0.007504
NI1086   NI        0.669240    0.301668    0.282663     0.004307
AU1087   AU        0.660364    0.324404    0.324117     0.007504
AU1088   AU        0.702426    0.298087    0.323047     0.007504
AU1089   AU        0.700486    0.336244    0.290574     0.007504
AU1090   AU        0.736695    0.295341    0.290568     0.007504
AU1091   AU        0.740227    0.330882    0.322935     0.007504
AU1092   AU        0.770794    0.293890    0.321679     0.007504
AU1093   AU        0.769563    0.333354    0.290781     0.007504
AU1094   AU        0.803732    0.293646    0.293504     0.007504
AU1095   AU        0.807418    0.330089    0.318708     0.007504
NI1096   NI        0.870160    0.357411    0.319393     0.004307
NI1097   NI        0.839269    0.321209    0.286193     0.004307
NI1098   NI        0.054025    0.370900    0.308449     0.004307
NI1099   NI        0.033561    0.411300    0.327228     0.004307
AU1100   AU        0.088799    0.366063    0.284891     0.007504
AU1101   AU        0.089001    0.401937    0.322773     0.007504
AU1102   AU        0.122259    0.366666    0.321601     0.007504
AU1103   AU        0.126884    0.404078    0.286781     0.007504
AU1104   AU        0.158702    0.366248    0.286244     0.007504
AU1105   AU        0.136941    0.414333    0.327887     0.007504
NI1106   NI        0.207213    0.350383    0.324924     0.004307
NI1107   NI        0.200446    0.387487    0.292631     0.004307
NI1108   NI        0.239862    0.359808    0.280337     0.004307
NI1109   NI        0.256691    0.381228    0.345464     0.004307
NI1110   NI        0.313773    0.363482    0.332107     0.004307
NI1111   NI        0.281725    0.389664    0.309769     0.004307
NI1112   NI        0.295703    0.383032    0.267505     0.004307
NI1113   NI        0.312186    0.406329    0.351479     0.004307
NI1114   NI        0.344390    0.368300    0.298557     0.004307
NI1115   NI        0.312748    0.416102    0.304400     0.004307
NI1116   NI        0.388954    0.387402    0.294161     0.004307
NI1117   NI        0.354447    0.407780    0.333272     0.004307
NI1118   NI        0.413127    0.370663    0.340605     0.004307
NI1119   NI        0.398189    0.421759    0.317094     0.004307
NI1120   NI        0.429643    0.372078    0.302180     0.004307
AU1121   AU        0.440975    0.406874    0.340850     0.007504
NI1122   NI        0.456479    0.366285    0.335844     0.004307
AU1123   AU        0.473953    0.391339    0.304696     0.007504
AU1124   AU        0.512599    0.356280    0.298632     0.007504
AU1125   AU        0.508129    0.383743    0.337796     0.007504
NI1126   NI        0.548464    0.353029    0.328950     0.004307
AU1127   AU        0.549000    0.389892    0.302229     0.007504
NI1128   NI        0.581497    0.345141    0.305005     0.004307
AU1129   AU        0.579344    0.418733    0.337249     0.007504
NI1130   NI        0.626958    0.352906    0.319487     0.004307
NI1131   NI        0.618779    0.396870    0.258473     0.004307
AU1132   AU        0.666760    0.373508    0.301879     0.007504
AU1133   AU        0.677801    0.410982    0.333128     0.007504
AU1134   AU        0.705298    0.369638    0.328057     0.007504
AU1135   AU        0.703587    0.403359    0.292480     0.007504
AU1136   AU        0.739619    0.370646    0.287815     0.007504
AU1137   AU        0.740383    0.407467    0.328578     0.007504
AU1138   AU        0.773312    0.370063    0.325560     0.007504
AU1139   AU        0.771659    0.407507    0.287769     0.007504
AU1140   AU        0.805710    0.369580    0.288360     0.007504
AU1141   AU        0.805443    0.407982    0.324195     0.007504
NI1142   NI        0.843095    0.387127    0.333805     0.004307
NI1143   NI        0.831551    0.408950    0.288547     0.004307
AU1144   AU        0.064646    0.443862    0.321510     0.007504
NI1145   NI        0.060572    0.490946    0.279451     0.004307
AU1146   AU        0.079859    0.445005    0.274743     0.007504
AU1147   AU        0.097086    0.480252    0.328322     0.007504
AU1148   AU        0.113075    0.441219    0.304553     0.007504
AU1149   AU        0.125512    0.480964    0.294706     0.007504
AU1150   AU        0.160111    0.443386    0.291225     0.007504
AU1151   AU        0.147140    0.462786    0.336765     0.007504
NI1152   NI        0.180769    0.425842    0.339047     0.004307
NI1153   NI        0.211003    0.446232    0.307673     0.004307
NI1154   NI        0.248297    0.459837    0.273217     0.004307
NI1155   NI        0.220103    0.467329    0.342283     0.004307
NI1156   NI        0.242093    0.416428    0.297107     0.004307
NI1157   NI        0.286378    0.485728    0.277550     0.004307
NI1158   NI        0.282411    0.443107    0.293988     0.004307
NI1159   NI        0.314914    0.495204    0.316698     0.004307
NI1160   NI        0.305007    0.450615    0.357595     0.004307
NI1161   NI        0.334403    0.456078    0.310625     0.004307
NI1162   NI        0.358311    0.430809    0.287371     0.004307
NI1163   NI        0.364260    0.486401    0.316020     0.004307
NI1164   NI        0.387353    0.455726    0.355863     0.004307
AU1165   AU        0.409102    0.468065    0.297837     0.007504
AU1166   AU        0.450791    0.436167    0.297139     0.007504
NI1167   NI        0.452556    0.482898    0.318737     0.004307
NI1168   NI        0.479812    0.451693    0.333720     0.004307
AU1169   AU        0.448143    0.485004    0.273426     0.007504
AU1170   AU        0.510389    0.421228    0.307277     0.007504
NI1171   NI        0.507410    0.484589    0.320827     0.004307
NI1172   NI        0.551939    0.449073    0.290404     0.004307
NI1173   NI        0.568260    0.488714    0.308886     0.004307
NI1174   NI        0.599842    0.450304    0.302568     0.004307
NI1175   NI        0.625539    0.479949    0.340401     0.004307
NI1176   NI        0.632544    0.434166    0.322755     0.004307
NI1177   NI        0.604918    0.487888    0.284231     0.004307
NI1178   NI        0.675834    0.443460    0.304134     0.004307
NI1179   NI        0.674601    0.481580    0.326870     0.004307
NI1180   NI        0.702521    0.478132    0.358635     0.004307
NI1181   NI        0.704317    0.480465    0.293113     0.004307
AU1182   AU        0.738129    0.442743    0.291868     0.007504
AU1183   AU        0.737217    0.478836    0.326551     0.007504
AU1184   AU        0.773384    0.444704    0.328733     0.007504
AU1185   AU        0.768596    0.482116    0.288754     0.007504
AU1186   AU        0.802216    0.445677    0.289673     0.007504
AU1187   AU        0.795745    0.483023    0.325060     0.007504
AU1188   AU        0.832972    0.449422    0.329848     0.007504
AU1189   AU        0.832726    0.486364    0.293834     0.007504
NI1190   NI        0.045209    0.479782    0.332320     0.004307
NI1191   NI        0.049030    0.530408    0.301253     0.004307
AU1192   AU        0.101809    0.519349    0.296375     0.007504
AU1193   AU        0.071094    0.521807    0.341828     0.007504
AU1194   AU        0.132111    0.514109    0.333005     0.007504
AU1195   AU        0.123539    0.556103    0.304459     0.007504
AU1196   AU        0.158607    0.521889    0.288877     0.007504
AU1197   AU        0.158400    0.547898    0.334996     0.007504
NI1198   NI        0.177717    0.502177    0.326822     0.004307
NI1199   NI        0.208861    0.537515    0.289508     0.004307
NI1200   NI        0.230624    0.496274    0.314564     0.004307
NI1201   NI        0.251024    0.534475    0.314928     0.004307
NI1202   NI        0.275833    0.497947    0.335071     0.004307
NI1203   NI        0.279870    0.568327    0.309703     0.004307
NI1204   NI        0.306931    0.540139    0.329024     0.004307
AU1205   AU        0.319121    0.596669    0.322906     0.007504
NI1206   NI        0.354287    0.524989    0.323039     0.004307
AU1207   AU        0.347600    0.565534    0.307792     0.007504
NI1208   NI        0.328932    0.491107    0.277763     0.004307
NI1209   NI        0.388598    0.554290    0.329002     0.004307
NI1210   NI        0.410038    0.513757    0.323482     0.004307
NI1211   NI        0.384293    0.543511    0.285707     0.004307
NI1212   NI        0.436633    0.533286    0.286039     0.004307
NI1213   NI        0.451240    0.567500    0.343854     0.004307
NI1214   NI        0.473247    0.530429    0.322621     0.004307
NI1215   NI        0.495504    0.573135    0.305589     0.004307
NI1216   NI        0.512194    0.525389    0.299009     0.004307
NI1217   NI        0.517518    0.552408    0.337042     0.004307
NI1218   NI        0.540231    0.504968    0.344962     0.004307
NI1219   NI        0.560131    0.537549    0.303987     0.004307
AU1220   AU        0.602666    0.517704    0.325414     0.007504
NI1221   NI        0.599278    0.562942    0.340688     0.004307
NI1222   NI        0.640684    0.502299    0.308961     0.004307
NI1223   NI        0.631140    0.552682    0.305809     0.004307
NI1224   NI        0.675009    0.515160    0.287143     0.004307
AU1225   AU        0.671267    0.550859    0.320236     0.007504
NI1226   NI        0.703338    0.511779    0.324245     0.004307
AU1227   AU        0.702003    0.557575    0.284433     0.007504
AU1228   AU        0.733361    0.517881    0.292142     0.007504
AU1229   AU        0.732019    0.556154    0.323316     0.007504
AU1230   AU        0.766479    0.519190    0.322813     0.007504
AU1231   AU        0.766823    0.558247    0.286504     0.007504
AU1232   AU        0.800142    0.521872    0.289840     0.007504
AU1233   AU        0.797656    0.559331    0.322889     0.007504
AU1234   AU        0.827491    0.520060    0.329874     0.007504
NI1235   NI        0.827884    0.595958    0.321089     0.004307
NI1236   NI        0.027250    0.591524    0.307490     0.004307
NI1237   NI        0.078481    0.563023    0.314506     0.004307
NI1238   NI        0.096919    0.601706    0.317663     0.004307
AU1239   AU        0.137133    0.588883    0.340569     0.007504
NI1240   NI        0.109389    0.611031    0.272273     0.004307
AU1241   AU        0.171369    0.570131    0.292708     0.007504
AU1242   AU        0.151382    0.626349    0.316936     0.007504
AU1243   AU        0.181246    0.592257    0.334226     0.007504
AU1244   AU        0.195118    0.618814    0.296939     0.007504
AU1245   AU        0.220860    0.578364    0.304866     0.007504
AU1246   AU        0.225580    0.618712    0.339560     0.007504
NI1247   NI        0.248736    0.575468    0.346192     0.004307
NI1248   NI        0.259220    0.613749    0.308472     0.004307
AU1249   AU        0.315869    0.582511    0.276064     0.007504
NI1250   NI        0.299768    0.633171    0.334808     0.004307
AU1251   AU        0.365250    0.600144    0.335567     0.007504
NI1252   NI        0.350352    0.615221    0.293687     0.004307
AU1253   AU        0.394442    0.587284    0.298424     0.007504
NI1254   NI        0.385468    0.637119    0.336348     0.004307
AU1255   AU        0.414427    0.601178    0.343058     0.007504
AU1256   AU        0.411517    0.634227    0.303482     0.007504
AU1257   AU        0.444053    0.600524    0.308578     0.007504
NI1258   NI        0.446486    0.640316    0.334718     0.004307
NI1259   NI        0.480184    0.620007    0.323827     0.004307
AU1260   AU        0.479787    0.605213    0.272363     0.007504
NI1261   NI        0.515774    0.619479    0.296434     0.004307
NI1262   NI        0.549323    0.623245    0.326893     0.004307
NI1263   NI        0.556718    0.580492    0.312433     0.004307
NI1264   NI        0.574049    0.615449    0.288939     0.004307
NI1265   NI        0.609664    0.588498    0.297797     0.004307
NI1266   NI        0.591921    0.608796    0.338476     0.004307
NI1267   NI        0.640616    0.593545    0.334709     0.004307
NI1268   NI        0.633695    0.625669    0.286873     0.004307
NI1269   NI        0.663234    0.592473    0.292854     0.004307
AU1270   AU        0.666780    0.634083    0.321845     0.007504
AU1271   AU        0.700106    0.594415    0.322517     0.007504
AU1272   AU        0.700442    0.628033    0.288214     0.007504
AU1273   AU        0.735343    0.593757    0.285163     0.007504
AU1274   AU        0.730171    0.633421    0.319263     0.007504
AU1275   AU        0.764849    0.595939    0.320347     0.007504
AU1276   AU        0.767680    0.631449    0.286213     0.007504
NI1277   NI        0.795379    0.596005    0.283581     0.004307
NI1278   NI        0.798284    0.637101    0.319718     0.004307
NI1279   NI        0.839236    0.589551    0.370302     0.004307
NI1280   NI        0.113132    0.648688    0.300686     0.004307
NI1281   NI        0.082084    0.644122    0.258672     0.004307
AU1282   AU        0.163814    0.657012    0.283304     0.007504
NI1283   NI        0.163130    0.690446    0.310413     0.004307
AU1284   AU        0.194904    0.658658    0.325841     0.007504
AU1285   AU        0.204831    0.693180    0.286280     0.007504
AU1286   AU        0.236753    0.651474    0.297739     0.007504
AU1287   AU        0.231360    0.694141    0.327586     0.007504
NI1288   NI        0.266352    0.660395    0.327513     0.004307
AU1289   AU        0.267054    0.690099    0.293840     0.007504
AU1290   AU        0.307122    0.628655    0.283432     0.007504
NI1291   NI        0.300054    0.689700    0.323454     0.004307
NI1292   NI        0.337731    0.649837    0.327098     0.004307
AU1293   AU        0.344686    0.692034    0.301363     0.007504
NI1294   NI        0.377681    0.657490    0.300751     0.004307
NI1295   NI        0.377571    0.726360    0.322602     0.004307
NI1296   NI        0.407106    0.673679    0.333849     0.004307
AU1297   AU        0.394689    0.705281    0.290102     0.007504
NI1298   NI        0.430309    0.677211    0.298501     0.004307
NI1299   NI        0.454093    0.685247    0.336340     0.004307
NI1300   NI        0.494212    0.660303    0.315239     0.004307
NI1301   NI        0.469873    0.691410    0.295003     0.004307
NI1302   NI        0.541072    0.662710    0.308219     0.004307
NI1303   NI        0.509320    0.697626    0.328069     0.004307
NI1304   NI        0.581504    0.655888    0.322744     0.004307
NI1305   NI        0.570095    0.689372    0.285498     0.004307
NI1306   NI        0.601111    0.660140    0.284282     0.004307
AU1307   AU        0.596400    0.707071    0.321025     0.007504
AU1308   AU        0.630556    0.668018    0.324370     0.007504
AU1309   AU        0.632779    0.702570    0.286408     0.007504
AU1310   AU        0.663602    0.664211    0.283655     0.007504
AU1311   AU        0.665578    0.701877    0.323338     0.007504
AU1312   AU        0.692909    0.669020    0.318915     0.007504
AU1313   AU        0.696954    0.703619    0.284464     0.007504
AU1314   AU        0.730786    0.664110    0.287731     0.007504
AU1315   AU        0.728296    0.699094    0.324323     0.007504
AU1316   AU        0.763996    0.670462    0.321960     0.007504
NI1317   NI        0.724596    0.793257    0.303466     0.004307
NI1318   NI        0.179268    0.735648    0.285893     0.004307
NI1319   NI        0.201101    0.725586    0.321878     0.004307
NI1320   NI        0.221417    0.778685    0.280849     0.004307
AU1321   AU        0.237321    0.728467    0.288666     0.007504
AU1322   AU        0.237837    0.758916    0.327263     0.007504
AU1323   AU        0.267937    0.727932    0.328925     0.007504
AU1324   AU        0.270847    0.757966    0.289003     0.007504
AU1325   AU        0.308277    0.724850    0.294640     0.007504
AU1326   AU        0.295396    0.761203    0.327135     0.007504
AU1327   AU        0.334946    0.737441    0.326673     0.007504
AU1328   AU        0.322905    0.768548    0.291721     0.007504
AU1329   AU        0.360112    0.740907    0.284816     0.007504
AU1330   AU        0.358969    0.774987    0.325496     0.007504
NI1331   NI        0.424467    0.713459    0.329992     0.004307
AU1332   AU        0.402454    0.754899    0.298280     0.007504
AU1333   AU        0.439252    0.731897    0.290761     0.007504
AU1334   AU        0.450158    0.771389    0.317452     0.007504
AU1335   AU        0.467223    0.727932    0.329562     0.007504
AU1336   AU        0.475366    0.768336    0.282430     0.007504
AU1337   AU        0.501434    0.724399    0.287795     0.007504
AU1338   AU        0.500484    0.757667    0.323914     0.007504
NI1339   NI        0.547186    0.715622    0.311399     0.004307
AU1340   AU        0.544749    0.756597    0.296060     0.007504
AU1341   AU        0.588103    0.737919    0.276795     0.007504
AU1342   AU        0.589403    0.760399    0.323982     0.007504
AU1343   AU        0.632651    0.733316    0.325163     0.007504
AU1344   AU        0.626310    0.771125    0.289842     0.007504
AU1345   AU        0.661292    0.737686    0.285026     0.007504
AU1346   AU        0.665937    0.764247    0.328489     0.007504
AU1347   AU        0.695492    0.735204    0.324756     0.007504
NI1348   NI        0.707168    0.752689    0.284254     0.004307
NI1349   NI        0.738276    0.749812    0.325019     0.004307
NI1350   NI        0.262996    0.791143    0.328947     0.004307
NI1351   NI        0.303871    0.836078    0.257976     0.004307
NI1352   NI        0.287821    0.802450    0.292046     0.004307
AU1353   AU        0.316922    0.803177    0.328311     0.007504
NI1354   NI        0.330953    0.816587    0.287328     0.004307
AU1355   AU        0.369585    0.790925    0.286464     0.007504
AU1356   AU        0.364052    0.817558    0.332052     0.007504
AU1357   AU        0.406777    0.795365    0.316146     0.007504
NI1358   NI        0.390932    0.836397    0.297753     0.004307
AU1359   AU        0.444024    0.807319    0.283670     0.007504
NI1360   NI        0.447361    0.840556    0.317686     0.004307
AU1361   AU        0.481169    0.801804    0.323609     0.007504
NI1362   NI        0.488350    0.836220    0.286687     0.004307
AU1363   AU        0.514504    0.794922    0.290700     0.007504
NI1364   NI        0.515153    0.823841    0.333194     0.004307
AU1365   AU        0.553587    0.795929    0.325858     0.007504
NI1366   NI        0.586903    0.818208    0.246812     0.004307
AU1367   AU        0.580795    0.790126    0.283655     0.007504
NI1368   NI        0.522887    0.872538    0.284401     0.004307
NI1369   NI        0.610790    0.826598    0.317036     0.004307
NI1370   NI        0.292459    0.036831    0.402131     0.004307
NI1371   NI        0.328511    0.051507    0.368274     0.004307
NI1372   NI        0.371504    0.037298    0.372176     0.004307
NI1373   NI        0.357567    0.058967    0.406039     0.004307
NI1374   NI        0.412119    0.021821    0.405722     0.004307
NI1375   NI        0.406031    0.042504    0.339744     0.004307
NI1376   NI        0.519527    0.037386    0.361389     0.004307
AU1377   AU        0.447215    0.046405    0.401711     0.007504
NI1378   NI        0.471367    0.002323    0.378110     0.004307
AU1379   AU        0.478255    0.049129    0.360286     0.007504
AU1380   AU        0.544163    0.074483    0.412294     0.007504
AU1381   AU        0.562022    0.061276    0.366661     0.007504
NI1382   NI        0.598614    0.037895    0.388143     0.004307
NI1383   NI        0.625626    0.058176    0.343546     0.004307
NI1384   NI        0.132599    0.113992    0.428921     0.004307
NI1385   NI        0.169099    0.127162    0.399686     0.004307
NI1386   NI        0.185553    0.134422    0.332384     0.004307
AU1387   AU        0.248081    0.115755    0.367356     0.007504
NI1388   NI        0.213255    0.123850    0.389739     0.004307
NI1389   NI        0.241149    0.077594    0.393248     0.004307
AU1390   AU        0.259187    0.111929    0.319786     0.007504
AU1391   AU        0.288490    0.079511    0.371826     0.007504
AU1392   AU        0.285438    0.122969    0.392992     0.007504
AU1393   AU        0.329099    0.094427    0.394593     0.007504
NI1394   NI        0.328458    0.099323    0.350883     0.004307
AU1395   AU        0.368778    0.087372    0.362866     0.007504
NI1396   NI        0.383985    0.132981    0.411483     0.004307
AU1397   AU        0.404753    0.066908    0.389072     0.007504
AU1398   AU        0.408790    0.116862    0.368292     0.007504
AU1399   AU        0.442351    0.080844    0.364502     0.007504
AU1400   AU        0.443896    0.115175    0.404001     0.007504
AU1401   AU        0.481646    0.080468    0.397176     0.007504
AU1402   AU        0.479115    0.116762    0.364460     0.007504
AU1403   AU        0.517217    0.082946    0.359354     0.007504
AU1404   AU        0.516490    0.116310    0.399872     0.007504
AU1405   AU        0.591791    0.087750    0.413016     0.007504
AU1406   AU        0.551853    0.120559    0.362036     0.007504
AU1407   AU        0.594254    0.097751    0.364359     0.007504
AU1408   AU        0.589246    0.137962    0.400171     0.007504
NI1409   NI        0.636772    0.060460    0.393548     0.004307
AU1410   AU        0.625837    0.136251    0.364321     0.007504
NI1411   NI        0.665068    0.085670    0.341299     0.004307
AU1412   AU        0.670011    0.116024    0.381147     0.007504
NI1413   NI        0.709510    0.084676    0.389356     0.004307
NI1414   NI        0.711098    0.122317    0.350036     0.004307
NI1415   NI        0.715030    0.102888    0.463048     0.004307
NI1416   NI        0.084025    0.195315    0.396606     0.004307
NI1417   NI        0.115999    0.175918    0.372303     0.004307
NI1418   NI        0.105858    0.208409    0.343096     0.004307
NI1419   NI        0.172241    0.155356    0.368659     0.004307
AU1420   AU        0.161512    0.193294    0.397415     0.007504
AU1421   AU        0.199791    0.173191    0.400682     0.007504
AU1422   AU        0.198462    0.200690    0.364926     0.007504
AU1423   AU        0.220163    0.156132    0.358235     0.007504
NI1424   NI        0.239394    0.202630    0.396759     0.004307
AU1425   AU        0.243547    0.150995    0.403923     0.007504
AU1426   AU        0.267476    0.166309    0.365196     0.007504
NI1427   NI        0.312136    0.175744    0.353180     0.004307
NI1428   NI        0.289759    0.179585    0.401774     0.004307
NI1429   NI        0.325921    0.145246    0.389960     0.004307
NI1430   NI        0.322218    0.208872    0.389499     0.004307
NI1431   NI        0.364431    0.129969    0.364515     0.004307
NI1432   NI        0.364218    0.193798    0.381393     0.004307
NI1433   NI        0.390527    0.162289    0.357333     0.004307
NI1434   NI        0.420955    0.189087    0.371058     0.004307
AU1435   AU        0.442094    0.152219    0.368836     0.007504
NI1436   NI        0.435148    0.169561    0.411125     0.004307
AU1437   AU        0.478349    0.150837    0.402135     0.007504
AU1438   AU        0.475733    0.189182    0.371893     0.007504
AU1439   AU        0.514056    0.156017    0.365486     0.007504
AU1440   AU        0.511746    0.188305    0.405703     0.007504
AU1441   AU        0.548806    0.155675    0.403448     0.007504
AU1442   AU        0.545103    0.193915    0.367399     0.007504
AU1443   AU        0.582600    0.162668    0.365547     0.007504
AU1444   AU        0.581481    0.192571    0.405826     0.007504
AU1445   AU        0.629006    0.171669    0.393839     0.007504
NI1446   NI        0.604574    0.204381    0.371334     0.004307
AU1447   AU        0.669627    0.163301    0.368292     0.007504
AU1448   AU        0.669463    0.199601    0.405267     0.007504
AU1449   AU        0.711095    0.143533    0.391031     0.007504
AU1450   AU        0.693716    0.206222    0.359086     0.007504
NI1451   NI        0.746469    0.149204    0.353668     0.004307
AU1452   AU        0.741562    0.184092    0.390209     0.007504
NI1453   NI        0.780479    0.155293    0.395586     0.004307
NI1454   NI        0.773539    0.191739    0.360213     0.004307
NI1455   NI        0.793759    0.193550    0.407425     0.004307
NI1456   NI        0.052248    0.259311    0.356179     0.004307
NI1457   NI        0.082256    0.208627    0.302246     0.004307
NI1458   NI        0.082108    0.229957    0.374096     0.004307
AU1459   AU        0.128468    0.223891    0.389199     0.007504
AU1460   AU        0.096872    0.262644    0.400067     0.007504
AU1461   AU        0.173019    0.235180    0.363882     0.007504
AU1462   AU        0.163035    0.261962    0.397949     0.007504
AU1463   AU        0.197947    0.224590    0.406320     0.007504
NI1464   NI        0.206258    0.273170    0.355456     0.004307
NI1465   NI        0.236520    0.231869    0.363985     0.004307
NI1466   NI        0.231303    0.254405    0.409277     0.004307
NI1467   NI        0.276785    0.241927    0.417413     0.004307
NI1468   NI        0.265689    0.264744    0.383199     0.004307
NI1469   NI        0.276038    0.223576    0.372642     0.004307
NI1470   NI        0.291357    0.289159    0.407442     0.004307
NI1471   NI        0.317315    0.253197    0.375029     0.004307
NI1472   NI        0.318115    0.304248    0.350369     0.004307
NI1473   NI        0.352190    0.234870    0.352316     0.004307
NI1474   NI        0.355223    0.233265    0.401304     0.004307
NI1475   NI        0.393349    0.233687    0.383803     0.004307
NI1476   NI        0.406328    0.269028    0.351728     0.004307
AU1477   AU        0.445969    0.228037    0.366514     0.007504
NI1478   NI        0.430807    0.253432    0.399749     0.004307
AU1479   AU        0.475321    0.224894    0.408002     0.007504
AU1480   AU        0.477021    0.264465    0.374906     0.007504
AU1481   AU        0.509828    0.227141    0.372178     0.007504
AU1482   AU        0.510058    0.262850    0.408398     0.007504
AU1483   AU        0.544876    0.226193    0.406141     0.007504
AU1484   AU        0.544042    0.264229    0.372911     0.007504
AU1485   AU        0.571647    0.231160    0.370989     0.007504
AU1486   AU        0.577547    0.260574    0.411647     0.007504
NI1487   NI        0.621738    0.220647    0.414354     0.004307
AU1488   AU        0.607160    0.254951    0.375904     0.007504
NI1489   NI        0.644896    0.210601    0.364276     0.004307
NI1490   NI        0.655180    0.252331    0.366560     0.004307
AU1491   AU        0.707570    0.223410    0.400256     0.007504
AU1492   AU        0.701754    0.257405    0.361816     0.007504
AU1493   AU        0.737185    0.225025    0.359765     0.007504
AU1494   AU        0.737489    0.262118    0.393679     0.007504
AU1495   AU        0.764506    0.227465    0.400230     0.007504
AU1496   AU        0.772183    0.260162    0.359185     0.007504
AU1497   AU        0.801047    0.224812    0.368501     0.007504
AU1498   AU        0.799979    0.257858    0.399852     0.007504
NI1499   NI        0.834163    0.265505    0.373958     0.004307
NI1500   NI        0.067641    0.299747    0.403631     0.004307
NI1501   NI        0.056276    0.325928    0.371240     0.004307
AU1502   AU        0.092734    0.293740    0.360103     0.007504
AU1503   AU        0.095964    0.337958    0.397146     0.007504
AU1504   AU        0.130186    0.299190    0.397014     0.007504
AU1505   AU        0.125205    0.331697    0.357246     0.007504
AU1506   AU        0.163061    0.296468    0.360035     0.007504
NI1507   NI        0.168816    0.339616    0.410030     0.004307
NI1508   NI        0.192845    0.303084    0.396838     0.004307
NI1509   NI        0.190486    0.338648    0.364277     0.004307
NI1510   NI        0.232038    0.327669    0.349597     0.004307
NI1511   NI        0.247759    0.372788    0.387316     0.004307
NI1512   NI        0.255009    0.311736    0.394667     0.004307
NI1513   NI        0.278475    0.350850    0.365720     0.004307
NI1514   NI        0.275556    0.306920    0.354142     0.004307
NI1515   NI        0.315982    0.328575    0.387788     0.004307
NI1516   NI        0.344391    0.283691    0.392229     0.004307
NI1517   NI        0.359010    0.328295    0.375320     0.004307
NI1518   NI        0.387859    0.295166    0.384865     0.004307
NI1519   NI        0.392898    0.333703    0.407195     0.004307
NI1520   NI        0.415736    0.289599    0.430383     0.004307
NI1521   NI        0.423225    0.342644    0.371060     0.004307
NI1522   NI        0.441371    0.294090    0.377269     0.004307
NI1523   NI        0.445914    0.327955    0.402090     0.004307
NI1524   NI        0.504296    0.304763    0.416767     0.004307
NI1525   NI        0.479073    0.324555    0.377033     0.004307
AU1526   AU        0.514838    0.301664    0.372600     0.007504
NI1527   NI        0.530793    0.340318    0.414560     0.004307
AU1528   AU        0.548550    0.300776    0.407719     0.007504
AU1529   AU        0.548875    0.337160    0.374448     0.007504
AU1530   AU        0.581163    0.298131    0.373268     0.007504
NI1531   NI        0.585846    0.340828    0.403672     0.004307
NI1532   NI        0.611508    0.302459    0.404324     0.004307
AU1533   AU        0.655968    0.332660    0.374236     0.007504
NI1534   NI        0.667440    0.289278    0.351439     0.004307
AU1535   AU        0.659462    0.376401    0.400248     0.007504
NI1536   NI        0.698737    0.300765    0.383892     0.004307
NI1537   NI        0.695971    0.330616    0.349607     0.004307
AU1538   AU        0.737934    0.295649    0.357708     0.007504
NI1539   NI        0.733652    0.326972    0.385909     0.004307
AU1540   AU        0.776108    0.294058    0.391664     0.007504
AU1541   AU        0.775542    0.329516    0.354669     0.007504
AU1542   AU        0.812748    0.297095    0.355454     0.007504
AU1543   AU        0.808954    0.332808    0.393190     0.007504
NI1544   NI        0.851550    0.317813    0.385319     0.004307
NI1545   NI        0.840773    0.338054    0.350672     0.004307
NI1546   NI        0.056235    0.369999    0.384137     0.004307
NI1547   NI        0.045498    0.365747    0.425962     0.004307
AU1548   AU        0.066831    0.417953    0.364974     0.007504
AU1549   AU        0.084081    0.360436    0.350951     0.007504
AU1550   AU        0.077842    0.400814    0.410432     0.007504
AU1551   AU        0.121068    0.373734    0.409899     0.007504
AU1552   AU        0.110840    0.392117    0.367026     0.007504
NI1553   NI        0.170635    0.381475    0.337363     0.004307
NI1554   NI        0.160060    0.378418    0.377792     0.004307
NI1555   NI        0.222989    0.342515    0.399887     0.004307
NI1556   NI        0.191618    0.403823    0.386934     0.004307
NI1557   NI        0.213471    0.373854    0.360226     0.004307
NI1558   NI        0.238564    0.410719    0.398690     0.004307
NI1559   NI        0.282891    0.344445    0.410946     0.004307
NI1560   NI        0.280398    0.406321    0.382164     0.004307
NI1561   NI        0.311290    0.374980    0.383830     0.004307
NI1562   NI        0.311303    0.411285    0.412400     0.004307
NI1563   NI        0.352129    0.365630    0.400071     0.004307
NI1564   NI        0.354308    0.406031    0.380296     0.004307
NI1565   NI        0.351034    0.365975    0.351900     0.004307
NI1566   NI        0.397549    0.409525    0.414854     0.004307
NI1567   NI        0.403604    0.374385    0.392378     0.004307
NI1568   NI        0.395395    0.407288    0.362378     0.004307
AU1569   AU        0.461305    0.376306    0.380683     0.007504
NI1570   NI        0.435810    0.419272    0.393725     0.004307
NI1571   NI        0.499937    0.396430    0.386159     0.004307
NI1572   NI        0.476712    0.418983    0.360980     0.004307
NI1573   NI        0.509182    0.356404    0.378752     0.004307
NI1574   NI        0.544665    0.421841    0.401332     0.004307
NI1575   NI        0.559977    0.375967    0.407432     0.004307
AU1576   AU        0.547955    0.389002    0.363537     0.007504
AU1577   AU        0.585843    0.370811    0.338583     0.007504
NI1578   NI        0.589653    0.405370    0.385408     0.004307
AU1579   AU        0.618990    0.364903    0.372798     0.007504
AU1580   AU        0.646419    0.409412    0.369873     0.007504
AU1581   AU        0.662786    0.367848    0.348418     0.007504
NI1582   NI        0.658667    0.428462    0.410681     0.004307
NI1583   NI        0.697267    0.367375    0.374684     0.004307
NI1584   NI        0.715384    0.409363    0.369008     0.004307
AU1585   AU        0.745197    0.368369    0.358686     0.007504
AU1586   AU        0.748884    0.413752    0.404777     0.007504
AU1587   AU        0.777741    0.374573    0.401561     0.007504
AU1588   AU        0.774557    0.408846    0.363700     0.007504
AU1589   AU        0.810802    0.369589    0.359120     0.007504
AU1590   AU        0.798641    0.424851    0.405787     0.007504
AU1591   AU        0.825647    0.383868    0.407338     0.007504
AU1592   AU        0.829275    0.416386    0.368622     0.007504
NI1593   NI        0.870081    0.414932    0.399148     0.004307
NI1594   NI        0.026522    0.445255    0.355613     0.004307
NI1595   NI        0.027615    0.483587    0.397528     0.004307
AU1596   AU        0.054739    0.446852    0.407625     0.007504
AU1597   AU        0.072134    0.468278    0.370450     0.007504
AU1598   AU        0.103869    0.437061    0.347333     0.007504
AU1599   AU        0.093872    0.480851    0.411212     0.007504
AU1600   AU        0.106481    0.435416    0.391798     0.007504
NI1601   NI        0.123911    0.472998    0.371167     0.004307
NI1602   NI        0.150359    0.422699    0.373195     0.004307
NI1603   NI        0.162152    0.485937    0.405868     0.004307
NI1604   NI        0.171434    0.446481    0.399577     0.004307
NI1605   NI        0.182696    0.474910    0.366046     0.004307
NI1606   NI        0.228623    0.420158    0.350931     0.004307
AU1607   AU        0.215644    0.445825    0.385435     0.007504
NI1608   NI        0.261603    0.442842    0.373059     0.004307
NI1609   NI        0.243583    0.482969    0.378319     0.004307
NI1610   NI        0.268788    0.427195    0.332602     0.004307
NI1611   NI        0.284401    0.479650    0.393637     0.004307
NI1612   NI        0.354336    0.455659    0.400138     0.004307
NI1613   NI        0.352850    0.483551    0.360202     0.004307
NI1614   NI        0.347619    0.440103    0.356613     0.004307
NI1615   NI        0.382992    0.485091    0.398493     0.004307
NI1616   NI        0.405706    0.446964    0.398899     0.004307
NI1617   NI        0.418170    0.483333    0.373232     0.004307
NI1618   NI        0.436902    0.450739    0.349013     0.004307
NI1619   NI        0.446787    0.481245    0.406277     0.004307
NI1620   NI        0.476111    0.448723    0.397712     0.004307
NI1621   NI        0.469811    0.480911    0.371393     0.004307
NI1622   NI        0.530324    0.425698    0.347812     0.004307
NI1623   NI        0.512262    0.461411    0.376121     0.004307
NI1624   NI        0.571080    0.452334    0.397912     0.004307
NI1625   NI        0.555741    0.456391    0.358141     0.004307
NI1626   NI        0.608248    0.441611    0.360312     0.004307
NI1627   NI        0.602172    0.482226    0.375415     0.004307
NI1628   NI        0.620986    0.442696    0.404100     0.004307
NI1629   NI        0.651979    0.508174    0.398320     0.004307
NI1630   NI        0.646096    0.462936    0.374763     0.004307
NI1631   NI        0.683849    0.474401    0.398888     0.004307
NI1632   NI        0.684970    0.439225    0.365782     0.004307
NI1633   NI        0.664670    0.514326    0.350452     0.004307
AU1634   AU        0.741872    0.442357    0.362052     0.007504
NI1635   NI        0.724289    0.490394    0.393353     0.004307
AU1636   AU        0.764178    0.460922    0.403519     0.007504
AU1637   AU        0.762961    0.485059    0.362374     0.007504
AU1638   AU        0.801009    0.456587    0.366834     0.007504
AU1639   AU        0.810295    0.480369    0.404875     0.007504
AU1640   AU        0.841941    0.449982    0.404026     0.007504
NI1641   NI        0.834449    0.485525    0.351235     0.004307
NI1642   NI        0.870939    0.433902    0.360783     0.004307
NI1643   NI        0.867741    0.479711    0.374463     0.004307
AU1644   AU        0.060012    0.513560    0.387632     0.007504
NI1645   NI        0.047884    0.561846    0.353728     0.004307
AU1646   AU        0.103490    0.510170    0.368947     0.007504
AU1647   AU        0.093505    0.551216    0.389651     0.007504
AU1648   AU        0.124101    0.517374    0.406898     0.007504
AU1649   AU        0.109040    0.555069    0.346922     0.007504
NI1650   NI        0.156675    0.509090    0.369693     0.004307
NI1651   NI        0.160760    0.554864    0.405101     0.004307
NI1652   NI        0.205403    0.504583    0.398169     0.004307
NI1653   NI        0.200831    0.548656    0.359192     0.004307
NI1654   NI        0.242362    0.528837    0.357402     0.004307
NI1655   NI        0.228851    0.539110    0.398537     0.004307
NI1656   NI        0.271673    0.524295    0.400592     0.004307
NI1657   NI        0.287795    0.553808    0.371751     0.004307
NI1658   NI        0.315609    0.508555    0.361467     0.004307
NI1659   NI        0.310019    0.539733    0.409750     0.004307
NI1660   NI        0.345153    0.504147    0.409201     0.004307
NI1661   NI        0.330346    0.545680    0.366801     0.004307
NI1662   NI        0.389887    0.521263    0.360384     0.004307
NI1663   NI        0.357302    0.545502    0.423983     0.004307
NI1664   NI        0.402107    0.523418    0.404446     0.004307
NI1665   NI        0.415115    0.563146    0.370408     0.004307
NI1666   NI        0.449944    0.516830    0.356668     0.004307
NI1667   NI        0.415966    0.572265    0.414520     0.004307
NI1668   NI        0.479149    0.512421    0.403918     0.004307
NI1669   NI        0.458174    0.548373    0.385524     0.004307
NI1670   NI        0.499882    0.514182    0.364143     0.004307
NI1671   NI        0.503205    0.549073    0.399905     0.004307
NI1672   NI        0.537971    0.514697    0.391765     0.004307
NI1673   NI        0.543938    0.554978    0.379786     0.004307
NI1674   NI        0.573317    0.528927    0.359386     0.004307
NI1675   NI        0.582564    0.573788    0.377444     0.004307
NI1676   NI        0.594427    0.526244    0.397892     0.004307
NI1677   NI        0.620731    0.568087    0.403300     0.004307
NI1678   NI        0.624246    0.527754    0.367938     0.004307
NI1679   NI        0.660403    0.548479    0.409647     0.004307
NI1680   NI        0.693148    0.517886    0.389174     0.004307
NI1681   NI        0.697201    0.550198    0.360541     0.004307
AU1682   AU        0.729713    0.517412    0.357217     0.007504
AU1683   AU        0.734294    0.543405    0.401414     0.007504
AU1684   AU        0.767980    0.508541    0.408829     0.007504
AU1685   AU        0.767987    0.551752    0.362966     0.007504
AU1686   AU        0.799177    0.511240    0.367337     0.007504
AU1687   AU        0.787876    0.546128    0.402724     0.007504
NI1688   NI        0.828047    0.521563    0.407799     0.004307
AU1689   AU        0.819490    0.550786    0.369269     0.007504
NI1690   NI        0.049228    0.608299    0.391514     0.004307
NI1691   NI        0.056265    0.624764    0.317339     0.004307
AU1692   AU        0.084193    0.596826    0.364157     0.007504
NI1693   NI        0.085022    0.640083    0.387888     0.004307
AU1694   AU        0.123017    0.591987    0.387818     0.007504
AU1695   AU        0.118325    0.631129    0.354290     0.007504
NI1696   NI        0.177643    0.594778    0.383366     0.004307
AU1697   AU        0.153289    0.633623    0.387011     0.007504
NI1698   NI        0.202670    0.569660    0.406487     0.004307
NI1699   NI        0.192100    0.627699    0.364789     0.004307
NI1700   NI        0.225025    0.588708    0.376607     0.004307
NI1701   NI        0.235601    0.628535    0.392582     0.004307
NI1702   NI        0.270815    0.601118    0.372837     0.004307
NI1703   NI        0.274341    0.642356    0.366287     0.004307
NI1704   NI        0.317375    0.585822    0.374613     0.004307
NI1705   NI        0.307105    0.627775    0.400000     0.004307
NI1706   NI        0.330486    0.580621    0.417095     0.004307
NI1707   NI        0.339151    0.624869    0.361593     0.004307
NI1708   NI        0.368116    0.566527    0.366540     0.004307
NI1709   NI        0.379304    0.627714    0.377702     0.004307
NI1710   NI        0.430089    0.607667    0.389752     0.004307
NI1711   NI        0.422522    0.648544    0.369897     0.004307
NI1712   NI        0.465436    0.610275    0.363635     0.004307
NI1713   NI        0.450041    0.644165    0.404717     0.004307
NI1714   NI        0.471207    0.590634    0.413822     0.004307
NI1715   NI        0.514361    0.638195    0.346558     0.004307
NI1716   NI        0.498095    0.584472    0.359290     0.004307
NI1717   NI        0.511255    0.614714    0.391445     0.004307
NI1718   NI        0.548079    0.587843    0.409053     0.004307
NI1719   NI        0.545810    0.597463    0.359086     0.004307
NI1720   NI        0.573657    0.621012    0.376314     0.004307
NI1721   NI        0.596364    0.666940    0.403593     0.004307
NI1722   NI        0.611549    0.605604    0.376504     0.004307
NI1723   NI        0.660780    0.615512    0.367676     0.004307
NI1724   NI        0.655077    0.573349    0.367863     0.004307
NI1725   NI        0.661121    0.589954    0.410999     0.004307
NI1726   NI        0.701285    0.579730    0.398903     0.004307
AU1727   AU        0.705291    0.632361    0.355567     0.007504
AU1728   AU        0.736897    0.591309    0.358961     0.007504
AU1729   AU        0.726901    0.621308    0.399359     0.007504
AU1730   AU        0.761993    0.586944    0.400118     0.007504
AU1731   AU        0.758050    0.631143    0.358582     0.007504
AU1732   AU        0.794433    0.594408    0.360361     0.007504
AU1733   AU        0.798043    0.619057    0.401465     0.007504
NI1734   NI        0.857865    0.535496    0.365923     0.004307
NI1735   NI        0.830012    0.635099    0.366620     0.004307
NI1736   NI        0.084987    0.675999    0.369551     0.004307
NI1737   NI        0.083572    0.683005    0.416484     0.004307
AU1738   AU        0.124602    0.670500    0.394720     0.007504
NI1739   NI        0.115159    0.686702    0.325173     0.004307
AU1740   AU        0.152788    0.664547    0.351050     0.007504
AU1741   AU        0.159750    0.696375    0.394907     0.007504
AU1742   AU        0.194554    0.658190    0.398600     0.007504
AU1743   AU        0.195465    0.695014    0.362161     0.007504
AU1744   AU        0.228856    0.660701    0.364204     0.007504
AU1745   AU        0.232171    0.694859    0.399846     0.007504
NI1746   NI        0.272985    0.656327    0.405557     0.004307
AU1747   AU        0.267445    0.691390    0.363140     0.007504
NI1748   NI        0.323185    0.665028    0.364915     0.004307
AU1749   AU        0.305977    0.697094    0.397396     0.007504
NI1750   NI        0.347254    0.669028    0.397154     0.004307
NI1751   NI        0.342675    0.708777    0.365879     0.004307
NI1752   NI        0.365985    0.673201    0.350832     0.004307
NI1753   NI        0.376593    0.713433    0.399028     0.004307
NI1754   NI        0.405855    0.665715    0.417420     0.004307
NI1755   NI        0.406432    0.695252    0.377936     0.004307
NI1756   NI        0.478973    0.661002    0.362341     0.004307
NI1757   NI        0.462640    0.691608    0.387124     0.004307
NI1758   NI        0.495197    0.658505    0.406938     0.004307
NI1759   NI        0.514223    0.685817    0.374724     0.004307
NI1760   NI        0.558393    0.660630    0.361850     0.004307
NI1761   NI        0.554499    0.692522    0.399290     0.004307
NI1762   NI        0.539607    0.642356    0.405795     0.004307
NI1763   NI        0.548237    0.715885    0.354110     0.004307
NI1764   NI        0.617347    0.645953    0.365858     0.004307
NI1765   NI        0.585078    0.695374    0.366769     0.004307
NI1766   NI        0.646473    0.634426    0.403286     0.004307
AU1767   AU        0.633002    0.702079    0.363082     0.007504
AU1768   AU        0.661607    0.662818    0.362071     0.007504
AU1769   AU        0.668306    0.694308    0.399569     0.007504
AU1770   AU        0.696484    0.659915    0.394097     0.007504
AU1771   AU        0.694291    0.698435    0.360966     0.007504
AU1772   AU        0.729684    0.669435    0.357798     0.007504
AU1773   AU        0.729370    0.696125    0.398142     0.007504
AU1774   AU        0.762366    0.657302    0.399869     0.007504
NI1775   NI        0.762498    0.703116    0.362124     0.004307
NI1776   NI        0.790926    0.659140    0.362196     0.004307
NI1777   NI        0.789105    0.691147    0.394307     0.004307
NI1778   NI        0.115453    0.714311    0.420390     0.004307
NI1779   NI        0.163602    0.735090    0.359035     0.004307
NI1780   NI        0.187730    0.786294    0.395191     0.004307
AU1781   AU        0.193300    0.728246    0.399645     0.007504
NI1782   NI        0.198698    0.759539    0.359345     0.004307
AU1783   AU        0.233508    0.728105    0.365259     0.007504
AU1784   AU        0.231503    0.764152    0.401729     0.007504
AU1785   AU        0.268227    0.728650    0.403813     0.007504
AU1786   AU        0.269149    0.762276    0.366576     0.007504
AU1787   AU        0.301398    0.733449    0.365367     0.007504
AU1788   AU        0.301834    0.766195    0.405437     0.007504
AU1789   AU        0.336392    0.736495    0.402162     0.007504
AU1790   AU        0.325974    0.768419    0.363969     0.007504
AU1791   AU        0.367124    0.744480    0.363434     0.007504
AU1792   AU        0.358701    0.779669    0.403173     0.007504
NI1793   NI        0.398806    0.750306    0.409064     0.004307
NI1794   NI        0.415523    0.759577    0.348177     0.004307
NI1795   NI        0.442177    0.723690    0.372731     0.004307
AU1796   AU        0.424846    0.778439    0.391127     0.007504
NI1797   NI        0.508417    0.708540    0.411741     0.004307
AU1798   AU        0.465793    0.769198    0.358084     0.007504
AU1799   AU        0.501226    0.733326    0.367728     0.007504
AU1800   AU        0.487411    0.752456    0.412150     0.007504
AU1801   AU        0.537275    0.747676    0.396498     0.007504
AU1802   AU        0.545812    0.760540    0.348345     0.007504
AU1803   AU        0.580774    0.748458    0.377001     0.007504
AU1804   AU        0.609381    0.782333    0.393926     0.007504
AU1805   AU        0.634708    0.729558    0.402230     0.007504
AU1806   AU        0.624273    0.754698    0.364616     0.007504
AU1807   AU        0.668623    0.734067    0.362666     0.007504
AU1808   AU        0.658937    0.767359    0.400328     0.007504
AU1809   AU        0.696618    0.733448    0.403468     0.007504
NI1810   NI        0.693627    0.772207    0.363253     0.004307
AU1811   AU        0.726538    0.733124    0.364815     0.007504
NI1812   NI        0.732772    0.770085    0.400366     0.004307
NI1813   NI        0.761247    0.739507    0.409209     0.004307
NI1814   NI        0.152427    0.752319    0.399079     0.004307
NI1815   NI        0.212423    0.801976    0.344920     0.004307
NI1816   NI        0.269654    0.795622    0.405883     0.004307
NI1817   NI        0.242804    0.803035    0.375388     0.004307
NI1818   NI        0.287864    0.803764    0.367791     0.004307
NI1819   NI        0.341824    0.846203    0.408536     0.004307
AU1820   AU        0.321908    0.810088    0.392137     0.007504
NI1821   NI        0.324723    0.843408    0.349302     0.004307
AU1822   AU        0.388416    0.792457    0.362360     0.007504
AU1823   AU        0.368497    0.829609    0.379206     0.007504
AU1824   AU        0.411281    0.827394    0.394370     0.007504
AU1825   AU        0.403923    0.835564    0.344548     0.007504
AU1826   AU        0.436920    0.802878    0.352763     0.007504
NI1827   NI        0.419336    0.850021    0.442462     0.004307
AU1828   AU        0.473369    0.797499    0.399538     0.007504
NI1829   NI        0.478846    0.821644    0.363755     0.004307
AU1830   AU        0.508779    0.782249    0.376054     0.007504
AU1831   AU        0.514675    0.827016    0.386564     0.007504
AU1832   AU        0.559389    0.792275    0.388860     0.007504
NI1833   NI        0.563512    0.843032    0.327830     0.004307
AU1834   AU        0.595288    0.793852    0.349208     0.007504
NI1835   NI        0.592262    0.830679    0.392879     0.004307
NI1836   NI        0.645775    0.807988    0.416346     0.004307
NI1837   NI        0.622432    0.838978    0.360461     0.004307
NI1838   NI        0.644043    0.793958    0.362454     0.004307
NI1839   NI        0.699908    0.806759    0.401539     0.004307
NI1840   NI        0.385387    0.858709    0.409519     0.004307
NI1841   NI        0.440733    0.850434    0.359859     0.004307
NI1842   NI        0.459236    0.839717    0.414277     0.004307
NI1843   NI        0.199415    0.060095    0.440546     0.004307
NI1844   NI        0.320884    0.049632    0.485264     0.004307
NI1845   NI        0.326029    0.068081    0.435804     0.004307
NI1846   NI        0.383708    0.043640    0.433544     0.004307
NI1847   NI        0.360713    0.061417    0.463338     0.004307
NI1848   NI        0.344832    0.020841    0.459154     0.004307
NI1849   NI        0.433536    0.033547    0.453112     0.004307
NI1850   NI        0.493428    0.031077    0.408546     0.004307
NI1851   NI        0.467450    0.039981    0.506591     0.004307
NI1852   NI        0.453507    0.000714    0.422593     0.004307
NI1853   NI        0.484401    0.030861    0.461619     0.004307
NI1854   NI        0.531290    0.032281    0.434151     0.004307
NI1855   NI        0.524837    0.041764    0.476150     0.004307
NI1856   NI        0.552806    0.025812    0.396481     0.004307
NI1857   NI        0.599763    0.055769    0.473181     0.004307
NI1858   NI        0.616736    0.045343    0.427472     0.004307
NI1859   NI        0.173141    0.102331    0.444217     0.004307
NI1860   NI        0.212729    0.092342    0.462995     0.004307
AU1861   AU        0.206781    0.130848    0.432101     0.007504
NI1862   NI        0.251121    0.050295    0.424416     0.004307
AU1863   AU        0.242127    0.136011    0.469558     0.007504
NI1864   NI        0.269164    0.065885    0.487706     0.004307
AU1865   AU        0.251445    0.107127    0.428063     0.007504
AU1866   AU        0.288301    0.083005    0.421304     0.007504
AU1867   AU        0.287395    0.104241    0.466304     0.007504
AU1868   AU        0.335161    0.097317    0.475009     0.007504
AU1869   AU        0.321643    0.119525    0.431345     0.007504
AU1870   AU        0.365470    0.091812    0.434235     0.007504
AU1871   AU        0.382182    0.096332    0.481474     0.007504
AU1872   AU        0.424208    0.072678    0.483157     0.007504
AU1873   AU        0.414841    0.083074    0.435536     0.007504
AU1874   AU        0.461267    0.068054    0.445039     0.007504
AU1875   AU        0.454876    0.110707    0.477673     0.007504
AU1876   AU        0.490156    0.073411    0.486246     0.007504
AU1877   AU        0.482426    0.112088    0.436916     0.007504
AU1878   AU        0.510719    0.072573    0.441036     0.007504
AU1879   AU        0.518864    0.112593    0.473576     0.007504
AU1880   AU        0.559019    0.076285    0.464424     0.007504
AU1881   AU        0.555843    0.119206    0.437306     0.007504
NI1882   NI        0.576042    0.044839    0.429838     0.004307
AU1883   AU        0.591084    0.122771    0.472720     0.007504
NI1884   NI        0.625756    0.076155    0.501957     0.004307
AU1885   AU        0.632479    0.118991    0.410730     0.007504
AU1886   AU        0.628820    0.096322    0.455109     0.007504
AU1887   AU        0.669143    0.124973    0.462618     0.007504
NI1888   NI        0.668693    0.087943    0.428330     0.004307
NI1889   NI        0.700203    0.116251    0.424957     0.004307
NI1890   NI        0.768578    0.158142    0.498190     0.004307
NI1891   NI        0.104255    0.206868    0.506491     0.004307
NI1892   NI        0.109982    0.175236    0.465605     0.004307
NI1893   NI        0.123998    0.182098    0.422338     0.004307
AU1894   AU        0.164422    0.157130    0.434003     0.007504
AU1895   AU        0.154675    0.189745    0.472642     0.007504
AU1896   AU        0.191120    0.156575    0.471011     0.007504
AU1897   AU        0.185365    0.196203    0.443382     0.007504
AU1898   AU        0.224930    0.172976    0.438040     0.007504
AU1899   AU        0.232589    0.184585    0.482714     0.007504
AU1900   AU        0.286595    0.157777    0.483199     0.007504
NI1901   NI        0.272372    0.192278    0.439608     0.004307
AU1902   AU        0.280813    0.142681    0.436982     0.007504
NI1903   NI        0.325904    0.171387    0.456979     0.004307
AU1904   AU        0.354531    0.138428    0.463983     0.007504
NI1905   NI        0.350270    0.163606    0.424314     0.004307
NI1906   NI        0.403051    0.156051    0.442681     0.004307
NI1907   NI        0.380906    0.184166    0.462927     0.004307
NI1908   NI        0.413643    0.122992    0.468099     0.004307
NI1909   NI        0.388249    0.195953    0.420193     0.004307
NI1910   NI        0.446617    0.144008    0.442672     0.004307
NI1911   NI        0.451721    0.182987    0.481295     0.004307
NI1912   NI        0.476474    0.147438    0.472527     0.004307
AU1913   AU        0.475160    0.185064    0.440332     0.007504
AU1914   AU        0.514235    0.148692    0.440025     0.007504
AU1915   AU        0.509907    0.184932    0.476418     0.007504
AU1916   AU        0.549877    0.152553    0.477255     0.007504
AU1917   AU        0.546405    0.187144    0.443938     0.007504
AU1918   AU        0.589094    0.160631    0.443393     0.007504
NI1919   NI        0.593627    0.170742    0.486683     0.004307
AU1920   AU        0.630243    0.144106    0.452611     0.007504
NI1921   NI        0.636089    0.183806    0.437547     0.004307
AU1922   AU        0.668738    0.150858    0.418671     0.007504
AU1923   AU        0.676800    0.196893    0.454656     0.007504
AU1924   AU        0.704563    0.159703    0.480030     0.007504
AU1925   AU        0.712537    0.177571    0.428448     0.007504
NI1926   NI        0.748162    0.133878    0.415392     0.004307
AU1927   AU        0.737073    0.193840    0.477256     0.007504
NI1928   NI        0.737814    0.149283    0.452616     0.004307
AU1929   AU        0.753467    0.201639    0.436814     0.007504
NI1930   NI        0.835017    0.248092    0.437709     0.004307
NI1931   NI        0.050485    0.278261    0.440866     0.004307
AU1932   AU        0.102957    0.228038    0.434263     0.007504
AU1933   AU        0.093638    0.267073    0.467290     0.007504
AU1934   AU        0.124680    0.229360    0.474346     0.007504
AU1935   AU        0.132100    0.268161    0.436558     0.007504
AU1936   AU        0.152845    0.224525    0.432095     0.007504
AU1937   AU        0.163225    0.260724    0.474138     0.007504
AU1938   AU        0.195166    0.222958    0.483053     0.007504
AU1939   AU        0.192224    0.251759    0.440063     0.007504
NI1940   NI        0.231419    0.221997    0.447169     0.004307
NI1941   NI        0.228054    0.257516    0.475526     0.004307
NI1942   NI        0.274173    0.232091    0.472046     0.004307
NI1943   NI        0.260104    0.284338    0.437644     0.004307
NI1944   NI        0.314221    0.213905    0.434593     0.004307
NI1945   NI        0.306965    0.253904    0.461678     0.004307
NI1946   NI        0.339944    0.212716    0.483618     0.004307
NI1947   NI        0.321559    0.266686    0.426293     0.004307
NI1948   NI        0.354992    0.215470    0.442080     0.004307
NI1949   NI        0.351880    0.255427    0.459768     0.004307
NI1950   NI        0.427028    0.207105    0.457075     0.004307
NI1951   NI        0.407763    0.251384    0.451106     0.004307
NI1952   NI        0.425327    0.213123    0.408547     0.004307
AU1953   AU        0.450022    0.269564    0.461549     0.007504
AU1954   AU        0.479036    0.224971    0.467521     0.007504
NI1955   NI        0.470261    0.264113    0.424423     0.004307
AU1956   AU        0.514309    0.225422    0.439780     0.007504
AU1957   AU        0.504518    0.262544    0.461304     0.007504
AU1958   AU        0.552836    0.215043    0.484490     0.007504
NI1959   NI        0.549174    0.260394    0.447054     0.004307
AU1960   AU        0.580700    0.225089    0.444729     0.007504
NI1961   NI        0.587143    0.272327    0.465939     0.004307
NI1962   NI        0.631334    0.218142    0.467681     0.004307
NI1963   NI        0.624761    0.255112    0.452838     0.004307
NI1964   NI        0.670533    0.244580    0.428322     0.004307
NI1965   NI        0.667990    0.279424    0.468873     0.004307
NI1966   NI        0.696654    0.239711    0.468522     0.004307
NI1967   NI        0.698335    0.278518    0.423883     0.004307
AU1968   AU        0.727890    0.236389    0.437816     0.007504
NI1969   NI        0.721874    0.276682    0.464159     0.004307
AU1970   AU        0.759423    0.239288    0.476097     0.007504
AU1971   AU        0.766534    0.268388    0.435033     0.007504
AU1972   AU        0.790940    0.233241    0.440571     0.007504
AU1973   AU        0.802723    0.266929    0.470197     0.007504
NI1974   NI        0.836623    0.199461    0.414422     0.004307
NI1975   NI        0.059200    0.292916    0.484971     0.004307
NI1976   NI        0.052967    0.330423    0.450281     0.004307
AU1977   AU        0.096722    0.305650    0.436181     0.007504
AU1978   AU        0.091461    0.331421    0.482008     0.007504
AU1979   AU        0.132091    0.300665    0.473376     0.007504
AU1980   AU        0.131343    0.331830    0.435612     0.007504
AU1981   AU        0.174012    0.298235    0.437288     0.007504
AU1982   AU        0.166937    0.335653    0.475460     0.007504
AU1983   AU        0.202662    0.298810    0.477552     0.007504
NI1984   NI        0.207842    0.340994    0.445889     0.004307
NI1985   NI        0.220096    0.304778    0.429522     0.004307
NI1986   NI        0.247079    0.329153    0.477357     0.004307
NI1987   NI        0.279658    0.300150    0.477237     0.004307
NI1988   NI        0.249110    0.338059    0.436127     0.004307
NI1989   NI        0.295450    0.315685    0.441671     0.004307
NI1990   NI        0.286241    0.357051    0.465140     0.004307
NI1991   NI        0.360992    0.294301    0.475611     0.004307
NI1992   NI        0.346612    0.317878    0.426164     0.004307
NI1993   NI        0.379605    0.262715    0.417552     0.004307
NI1994   NI        0.386049    0.321655    0.451093     0.004307
AU1995   AU        0.425987    0.314993    0.471785     0.007504
NI1996   NI        0.427562    0.352300    0.431254     0.004307
NI1997   NI        0.464536    0.305531    0.432041     0.004307
AU1998   AU        0.465682    0.346869    0.458851     0.007504
AU1999   AU        0.474826    0.307896    0.474753     0.007504
NI2000   NI        0.484279    0.348454    0.414573     0.004307
NI2001   NI        0.531397    0.301275    0.450475     0.004307
NI2002   NI        0.510950    0.342499    0.462231     0.004307
NI2003   NI        0.571545    0.305683    0.484426     0.004307
NI2004   NI        0.562267    0.334418    0.452887     0.004307
NI2005   NI        0.580907    0.298037    0.434825     0.004307
NI2006   NI        0.602519    0.339854    0.441411     0.004307
NI2007   NI        0.629937    0.303376    0.445344     0.004307
NI2008   NI        0.636573    0.341616    0.413448     0.004307
NI2009   NI        0.665197    0.306947    0.418725     0.004307
NI2010   NI        0.655016    0.344561    0.454608     0.004307
NI2011   NI        0.696658    0.318766    0.455483     0.004307
NI2012   NI        0.697372    0.339199    0.408774     0.004307
NI2013   NI        0.741453    0.310732    0.448821     0.004307
NI2014   NI        0.732406    0.349707    0.442898     0.004307
AU2015   AU        0.766224    0.287481    0.481317     0.007504
AU2016   AU        0.767954    0.328732    0.418577     0.007504
AU2017   AU        0.805467    0.297205    0.431872     0.007504
AU2018   AU        0.811542    0.317268    0.476223     0.007504
NI2019   NI        0.862558    0.303601    0.464260     0.004307
NI2020   NI        0.844397    0.324684    0.428579     0.004307
NI2021   NI        0.024535    0.300739    0.404080     0.004307
NI2022   NI        0.040941    0.335488    0.494426     0.004307
AU2023   AU        0.058462    0.371571    0.478049     0.007504
NI2024   NI        0.031030    0.411164    0.399512     0.004307
AU2025   AU        0.091984    0.359319    0.441293     0.007504
AU2026   AU        0.091711    0.402354    0.475237     0.007504
AU2027   AU        0.127705    0.364552    0.471289     0.007504
NI2028   NI        0.132695    0.407521    0.438707     0.004307
NI2029   NI        0.168357    0.371412    0.437871     0.004307
NI2030   NI        0.162121    0.408638    0.472535     0.004307
AU2031   AU        0.197302    0.375833    0.474517     0.007504
NI2032   NI        0.183588    0.416064    0.431627     0.004307
NI2033   NI        0.219092    0.382007    0.427822     0.004307
NI2034   NI        0.225972    0.415811    0.472510     0.004307
NI2035   NI        0.239275    0.369744    0.466070     0.004307
AU2036   AU        0.272774    0.389323    0.430534     0.007504
NI2037   NI        0.320851    0.359134    0.428065     0.004307
AU2038   AU        0.313833    0.398019    0.461418     0.007504
NI2039   NI        0.328366    0.352803    0.470613     0.004307
NI2040   NI        0.354503    0.400594    0.428555     0.004307
NI2041   NI        0.385231    0.368244    0.431994     0.004307
NI2042   NI        0.384725    0.411679    0.460680     0.004307
AU2043   AU        0.419361    0.364298    0.472711     0.007504
NI2044   NI        0.427277    0.399404    0.443601     0.004307
NI2045   NI        0.460219    0.381473    0.423182     0.004307
NI2046   NI        0.461504    0.415700    0.462315     0.004307
NI2047   NI        0.491395    0.384708    0.458062     0.004307
NI2048   NI        0.496974    0.418481    0.423451     0.004307
NI2049   NI        0.521888    0.386348    0.423057     0.004307
NI2050   NI        0.518652    0.416866    0.458633     0.004307
NI2051   NI        0.545370    0.383072    0.462006     0.004307
NI2052   NI        0.569349    0.409721    0.434452     0.004307
NI2053   NI        0.615169    0.388030    0.414729     0.004307
NI2054   NI        0.588582    0.378757    0.458028     0.004307
NI2055   NI        0.622322    0.359829    0.480104     0.004307
NI2056   NI        0.634662    0.435251    0.446743     0.004307
NI2057   NI        0.686057    0.403244    0.467346     0.004307
NI2058   NI        0.637915    0.398502    0.476595     0.004307
NI2059   NI        0.689552    0.370798    0.438455     0.004307
NI2060   NI        0.701003    0.407425    0.410102     0.004307
NI2061   NI        0.727542    0.389818    0.442615     0.004307
NI2062   NI        0.738096    0.405816    0.485376     0.004307
AU2063   AU        0.772574    0.359954    0.473255     0.007504
AU2064   AU        0.786320    0.399124    0.442048     0.007504
AU2065   AU        0.806323    0.351235    0.436691     0.007504
AU2066   AU        0.822700    0.379507    0.464184     0.007504
NI2067   NI        0.857753    0.374030    0.436925     0.004307
AU2068   AU        0.829408    0.424231    0.443792     0.007504
NI2069   NI        0.858947    0.380374    0.370393     0.004307
NI2070   NI        0.865145    0.407866    0.461973     0.004307
NI2071   NI        0.023782    0.449383    0.462622     0.004307
NI2072   NI        0.050325    0.492776    0.492068     0.004307
AU2073   AU        0.046827    0.413491    0.449631     0.007504
AU2074   AU        0.053854    0.487564    0.439013     0.007504
AU2075   AU        0.093552    0.438479    0.438915     0.007504
AU2076   AU        0.097119    0.479268    0.465149     0.007504
NI2077   NI        0.124372    0.441873    0.471447     0.004307
NI2078   NI        0.128557    0.470182    0.431883     0.004307
NI2079   NI        0.167345    0.454946    0.447207     0.004307
AU2080   AU        0.144862    0.486997    0.487505     0.007504
NI2081   NI        0.204800    0.454984    0.498683     0.004307
AU2082   AU        0.204884    0.468052    0.429049     0.007504
NI2083   NI        0.222383    0.428437    0.432119     0.004307
AU2084   AU        0.240227    0.466797    0.465134     0.007504
AU2085   AU        0.273297    0.427017    0.465316     0.007504
AU2086   AU        0.255440    0.453694    0.420713     0.007504
NI2087   NI        0.298699    0.444237    0.434242     0.004307
AU2088   AU        0.312427    0.468311    0.474082     0.007504
NI2089   NI        0.346647    0.432578    0.459646     0.004307
NI2090   NI        0.338402    0.474545    0.439262     0.004307
NI2091   NI        0.382885    0.449371    0.432707     0.004307
NI2092   NI        0.390890    0.478004    0.472890     0.004307
NI2093   NI        0.417096    0.445137    0.466008     0.004307
NI2094   NI        0.414777    0.475823    0.430866     0.004307
NI2095   NI        0.444556    0.446537    0.433443     0.004307
NI2096   NI        0.459096    0.480784    0.450122     0.004307
NI2097   NI        0.508514    0.456804    0.475917     0.004307
AU2098   AU        0.494842    0.472821    0.428588     0.007504
NI2099   NI        0.534783    0.459614    0.424108     0.004307
AU2100   AU        0.547449    0.491285    0.459288     0.007504
NI2101   NI        0.554138    0.442947    0.467915     0.004307
NI2102   NI        0.564070    0.497972    0.418522     0.004307
NI2103   NI        0.584840    0.463638    0.442954     0.004307
AU2104   AU        0.580854    0.470350    0.491742     0.007504
AU2105   AU        0.621957    0.476891    0.465311     0.007504
NI2106   NI        0.609619    0.488743    0.417160     0.004307
NI2107   NI        0.648734    0.473226    0.430850     0.004307
NI2108   NI        0.664226    0.497971    0.473435     0.004307
NI2109   NI        0.690778    0.435617    0.441059     0.004307
NI2110   NI        0.716261    0.470087    0.443602     0.004307
NI2111   NI        0.747058    0.431203    0.447405     0.004307
NI2112   NI        0.739488    0.473425    0.488798     0.004307
AU2113   AU        0.775188    0.437672    0.490938     0.007504
NI2114   NI        0.754372    0.487418    0.445894     0.004307
AU2115   AU        0.792672    0.459076    0.445048     0.007504
AU2116   AU        0.806625    0.478739    0.483773     0.007504
AU2117   AU        0.839938    0.440283    0.491424     0.007504
AU2118   AU        0.838398    0.472834    0.451937     0.007504
NI2119   NI        0.888961    0.452360    0.428645     0.004307
NI2120   NI        0.882477    0.459795    0.476489     0.004307
NI2121   NI        0.000714    0.446625    0.400919     0.004307
NI2122   NI        0.050516    0.530181    0.517209     0.004307
NI2123   NI        0.055804    0.561159    0.415847     0.004307
AU2124   AU        0.083772    0.527257    0.436847     0.007504
AU2125   AU        0.082581    0.568923    0.462039     0.007504
AU2126   AU        0.124175    0.522008    0.457823     0.007504
AU2127   AU        0.118034    0.561058    0.426913     0.007504
NI2128   NI        0.161685    0.499546    0.445278     0.004307
AU2129   AU        0.156677    0.562027    0.455010     0.007504
AU2130   AU        0.195335    0.490699    0.471738     0.007504
NI2131   NI        0.201649    0.531746    0.437999     0.004307
AU2132   AU        0.243840    0.501379    0.428631     0.007504
AU2133   AU        0.237522    0.533636    0.470704     0.007504
AU2134   AU        0.274193    0.500420    0.476966     0.007504
AU2135   AU        0.278449    0.533863    0.447057     0.007504
AU2136   AU        0.291770    0.488566    0.434695     0.007504
AU2137   AU        0.279038    0.541482    0.500510     0.007504
AU2138   AU        0.324396    0.515648    0.460606     0.007504
NI2139   NI        0.318475    0.566834    0.456089     0.004307
NI2140   NI        0.368562    0.508619    0.445175     0.004307
NI2141   NI        0.363420    0.557078    0.471399     0.004307
NI2142   NI        0.430135    0.518519    0.470205     0.004307
NI2143   NI        0.404206    0.561828    0.454299     0.004307
NI2144   NI        0.438628    0.529372    0.429803     0.004307
NI2145   NI        0.433790    0.579073    0.490742     0.004307
AU2146   AU        0.498416    0.503458    0.469196     0.007504
NI2147   NI        0.477226    0.540605    0.435819     0.004307
AU2148   AU        0.515257    0.517253    0.430040     0.007504
AU2149   AU        0.535549    0.536667    0.469742     0.007504
AU2150   AU        0.563458    0.510334    0.502507     0.007504
NI2151   NI        0.555421    0.541315    0.432681     0.004307
AU2152   AU        0.588772    0.511159    0.459340     0.007504
AU2153   AU        0.581436    0.552440    0.493373     0.007504
AU2154   AU        0.635464    0.521129    0.445946     0.007504
NI2155   NI        0.600717    0.556921    0.440473     0.004307
NI2156   NI        0.681160    0.507420    0.428509     0.004307
NI2157   NI        0.659581    0.542944    0.481394     0.004307
NI2158   NI        0.707853    0.507978    0.471858     0.004307
NI2159   NI        0.693048    0.548708    0.442050     0.004307
NI2160   NI        0.728315    0.520646    0.437489     0.004307
AU2161   AU        0.733893    0.549882    0.475378     0.007504
AU2162   AU        0.771565    0.514688    0.481745     0.007504
AU2163   AU        0.769679    0.545690    0.443285     0.007504
AU2164   AU        0.803835    0.508624    0.446126     0.007504
AU2165   AU        0.803591    0.551730    0.474988     0.007504
NI2166   NI        0.843552    0.548540    0.453824     0.004307
NI2167   NI        0.882111    0.569963    0.426381     0.004307
NI2168   NI        0.860291    0.505387    0.434055     0.004307
NI2169   NI        0.044365    0.531578    0.460767     0.004307
NI2170   NI        0.055228    0.637057    0.357669     0.004307
AU2171   AU        0.083584    0.594804    0.415435     0.007504
NI2172   NI        0.079886    0.613083    0.464471     0.004307
AU2173   AU        0.120401    0.599241    0.461491     0.007504
AU2174   AU        0.115071    0.632110    0.419693     0.007504
AU2175   AU        0.151149    0.600664    0.421032     0.007504
AU2176   AU        0.168466    0.612817    0.464758     0.007504
AU2177   AU        0.203344    0.575909    0.461613     0.007504
AU2178   AU        0.199814    0.615784    0.425750     0.007504
AU2179   AU        0.243062    0.568031    0.434485     0.007504
AU2180   AU        0.237768    0.613319    0.463123     0.007504
AU2181   AU        0.275426    0.578774    0.469570     0.007504
NI2182   NI        0.269374    0.616694    0.428343     0.004307
NI2183   NI        0.283483    0.575197    0.418280     0.004307
NI2184   NI        0.306192    0.639852    0.481027     0.004307
NI2185   NI        0.308298    0.612769    0.447709     0.004307
AU2186   AU        0.352255    0.623574    0.419738     0.007504
NI2187   NI        0.373997    0.585246    0.404724     0.004307
NI2188   NI        0.375686    0.602695    0.455712     0.004307
NI2189   NI        0.418615    0.608324    0.467098     0.004307
NI2190   NI        0.415370    0.617202    0.427655     0.004307
NI2191   NI        0.448170    0.566869    0.453981     0.004307
NI2192   NI        0.458662    0.617574    0.449772     0.004307
NI2193   NI        0.477837    0.580661    0.487130     0.004307
NI2194   NI        0.497556    0.621423    0.430975     0.004307
AU2195   AU        0.511490    0.573094    0.444679     0.007504
AU2196   AU        0.505170    0.614178    0.476183     0.007504
AU2197   AU        0.542912    0.582480    0.488176     0.007504
NI2198   NI        0.540976    0.613718    0.441957     0.004307
NI2199   NI        0.594296    0.611371    0.420137     0.004307
NI2200   NI        0.567690    0.649172    0.461026     0.004307
NI2201   NI        0.603341    0.600364    0.465087     0.004307
NI2202   NI        0.633619    0.617398    0.440742     0.004307
NI2203   NI        0.655758    0.574882    0.452453     0.004307
AU2204   AU        0.671689    0.620453    0.470237     0.007504
AU2205   AU        0.699081    0.585964    0.476059     0.007504
AU2206   AU        0.699948    0.617827    0.434903     0.007504
AU2207   AU        0.731529    0.582390    0.437722     0.007504
AU2208   AU        0.732006    0.621710    0.474459     0.007504
AU2209   AU        0.766749    0.587546    0.472096     0.007504
AU2210   AU        0.763156    0.621821    0.435348     0.007504
AU2211   AU        0.798091    0.585550    0.433668     0.007504
AU2212   AU        0.799862    0.623130    0.471053     0.007504
NI2213   NI        0.831870    0.569799    0.410275     0.004307
NI2214   NI        0.831804    0.626171    0.434603     0.004307
NI2215   NI        0.065500    0.641131    0.429275     0.004307
NI2216   NI        0.099008    0.694742    0.491507     0.004307
AU2217   AU        0.134820    0.644254    0.477716     0.007504
AU2218   AU        0.116488    0.672568    0.447800     0.007504
AU2219   AU        0.156737    0.661535    0.429683     0.007504
AU2220   AU        0.162349    0.687144    0.474608     0.007504
AU2221   AU        0.196014    0.650685    0.464960     0.007504
AU2222   AU        0.194745    0.691320    0.434848     0.007504
AU2223   AU        0.232905    0.655733    0.430375     0.007504
AU2224   AU        0.234098    0.689112    0.466491     0.007504
AU2225   AU        0.268430    0.651032    0.464356     0.007504
AU2226   AU        0.271124    0.689781    0.435886     0.007504
NI2227   NI        0.310027    0.659754    0.431888     0.004307
AU2228   AU        0.309625    0.681354    0.469700     0.007504
NI2229   NI        0.348298    0.633784    0.464701     0.004307
AU2230   AU        0.343419    0.697539    0.435804     0.007504
NI2231   NI        0.392432    0.646211    0.454151     0.004307
NI2232   NI        0.355314    0.676597    0.476918     0.004307
NI2233   NI        0.414478    0.688646    0.459515     0.004307
NI2234   NI        0.423313    0.710439    0.419801     0.004307
NI2235   NI        0.450805    0.678910    0.435265     0.004307
NI2236   NI        0.453859    0.721998    0.466564     0.004307
NI2237   NI        0.466142    0.667301    0.480113     0.004307
NI2238   NI        0.488697    0.702973    0.456994     0.004307
AU2239   AU        0.509443    0.657458    0.456233     0.007504
NI2240   NI        0.533544    0.692400    0.486899     0.004307
NI2241   NI        0.546706    0.675918    0.436179     0.004307
NI2242   NI        0.554804    0.719974    0.430724     0.004307
NI2243   NI        0.606598    0.684658    0.468597     0.004307
NI2244   NI        0.574126    0.680311    0.496442     0.004307
NI2245   NI        0.639851    0.660189    0.475959     0.004307
AU2246   AU        0.640570    0.694947    0.438885     0.007504
AU2247   AU        0.667859    0.655296    0.435562     0.007504
AU2248   AU        0.669633    0.702598    0.478375     0.007504
AU2249   AU        0.698039    0.658525    0.474525     0.007504
AU2250   AU        0.694057    0.693747    0.436994     0.007504
AU2251   AU        0.728006    0.659177    0.433081     0.007504
AU2252   AU        0.724161    0.695330    0.474077     0.007504
AU2253   AU        0.763414    0.661367    0.471446     0.007504
AU2254   AU        0.760766    0.696432    0.437088     0.007504
AU2255   AU        0.796028    0.659563    0.434671     0.007504
NI2256   NI        0.800676    0.716201    0.437152     0.004307
NI2257   NI        0.129091    0.722344    0.481358     0.004307
AU2258   AU        0.156197    0.719635    0.438299     0.007504
NI2259   NI        0.155551    0.755331    0.472474     0.004307
AU2260   AU        0.196768    0.722845    0.474351     0.007504
AU2261   AU        0.189273    0.757884    0.436987     0.007504
AU2262   AU        0.229916    0.729788    0.437860     0.007504
AU2263   AU        0.227014    0.765820    0.474967     0.007504
AU2264   AU        0.259674    0.733292    0.480993     0.007504
AU2265   AU        0.267614    0.761095    0.441560     0.007504
AU2266   AU        0.303494    0.728243    0.440988     0.007504
AU2267   AU        0.302020    0.758847    0.480250     0.007504
AU2268   AU        0.335613    0.725748    0.476213     0.007504
AU2269   AU        0.334739    0.768272    0.442183     0.007504
NI2270   NI        0.367322    0.738167    0.443874     0.004307
NI2271   NI        0.372028    0.763657    0.481029     0.004307
NI2272   NI        0.406427    0.741450    0.475945     0.004307
NI2273   NI        0.393040    0.783475    0.435631     0.004307
NI2274   NI        0.448977    0.752204    0.426351     0.004307
NI2275   NI        0.442156    0.763047    0.468646     0.004307
AU2276   AU        0.491895    0.750955    0.472207     0.007504
AU2277   AU        0.475097    0.786570    0.444734     0.007504
AU2278   AU        0.527663    0.749495    0.445838     0.007504
AU2279   AU        0.513278    0.791683    0.465319     0.007504
AU2280   AU        0.569002    0.740765    0.474109     0.007504
AU2281   AU        0.574387    0.761442    0.426559     0.007504
NI2282   NI        0.597985    0.715706    0.435497     0.004307
AU2283   AU        0.605037    0.776238    0.479732     0.007504
AU2284   AU        0.626142    0.731367    0.473204     0.007504
AU2285   AU        0.627276    0.765885    0.436381     0.007504
AU2286   AU        0.665733    0.733113    0.442489     0.007504
AU2287   AU        0.657487    0.767484    0.477864     0.007504
AU2288   AU        0.699623    0.737604    0.480215     0.007504
AU2289   AU        0.692990    0.768738    0.438660     0.007504
AU2290   AU        0.727118    0.732127    0.435072     0.007504
NI2291   NI        0.738401    0.767817    0.461980     0.004307
NI2292   NI        0.749027    0.727068    0.472865     0.004307
NI2293   NI        0.204711    0.799822    0.448414     0.004307
NI2294   NI        0.244599    0.804601    0.436389     0.004307
NI2295   NI        0.300784    0.845916    0.468501     0.004307
NI2296   NI        0.294679    0.842095    0.421430     0.004307
NI2297   NI        0.302217    0.798589    0.445779     0.004307
NI2298   NI        0.324460    0.831986    0.502160     0.004307
AU2299   AU        0.338776    0.793414    0.486344     0.007504
NI2300   NI        0.344623    0.835579    0.463491     0.004307
NI2301   NI        0.367070    0.817896    0.424017     0.004307
NI2302   NI        0.379874    0.865704    0.457083     0.004307
AU2303   AU        0.441146    0.809645    0.479817     0.007504
AU2304   AU        0.392207    0.820590    0.461969     0.007504
AU2305   AU        0.430845    0.800679    0.432155     0.007504
NI2306   NI        0.460840    0.850972    0.500628     0.004307
AU2307   AU        0.490252    0.825184    0.482661     0.007504
AU2308   AU        0.499974    0.830224    0.434242     0.007504
AU2309   AU        0.520482    0.789242    0.417692     0.007504
AU2310   AU        0.538063    0.834944    0.471734     0.007504
AU2311   AU        0.557887    0.790648    0.465735     0.007504
AU2312   AU        0.549814    0.824448    0.423536     0.007504
AU2313   AU        0.594602    0.801728    0.433279     0.007504
AU2314   AU        0.589350    0.825584    0.469110     0.007504
NI2315   NI        0.640408    0.814413    0.457940     0.004307
NI2316   NI        0.593444    0.848461    0.432324     0.004307
NI2317   NI        0.683046    0.809718    0.448689     0.004307
NI2318   NI        0.704046    0.782494    0.484413     0.004307
NI2319   NI        0.362601    0.885204    0.384000     0.004307
NI2320   NI        0.420323    0.843691    0.495472     0.004307
NI2321   NI        0.463623    0.863166    0.452881     0.004307
NI2322   NI        0.510829    0.869978    0.465987     0.004307
NI2323   NI        0.521353    0.866509    0.413945     0.004307
NI2324   NI        0.287251    0.045644    0.451059     0.004307
NI2325   NI        0.336378    0.040184    0.525364     0.004307
NI2326   NI        0.372519    0.019335    0.533721     0.004307
NI2327   NI        0.366569    0.069576    0.514152     0.004307
NI2328   NI        0.401099    0.026441    0.490793     0.004307
NI2329   NI        0.404994    0.057276    0.530386     0.004307
NI2330   NI        0.381985    0.051203    0.574241     0.004307
NI2331   NI        0.459234    0.049681    0.554707     0.004307
NI2332   NI        0.535568    0.038798    0.535165     0.004307
NI2333   NI        0.565896    0.031747    0.493023     0.004307
NI2334   NI        0.585043    0.054117    0.526476     0.004307
NI2335   NI        0.649892    0.051886    0.463680     0.004307
NI2336   NI        0.199288    0.104882    0.503264     0.004307
NI2337   NI        0.238633    0.096878    0.498068     0.004307
NI2338   NI        0.247330    0.113869    0.541738     0.004307
NI2339   NI        0.278827    0.077316    0.539629     0.004307
AU2340   AU        0.274900    0.116498    0.507052     0.007504
AU2341   AU        0.313028    0.082013    0.512555     0.007504
AU2342   AU        0.308639    0.115713    0.547893     0.007504
NI2343   NI        0.343631    0.083760    0.549423     0.004307
NI2344   NI        0.350972    0.108134    0.513985     0.004307
AU2345   AU        0.409874    0.110486    0.520077     0.007504
NI2346   NI        0.369938    0.141652    0.541459     0.004307
AU2347   AU        0.429524    0.081478    0.559313     0.007504
NI2348   NI        0.386659    0.140502    0.498466     0.004307
AU2349   AU        0.448258    0.081237    0.519600     0.007504
AU2350   AU        0.443481    0.127205    0.542104     0.007504
AU2351   AU        0.495502    0.067573    0.536741     0.007504
AU2352   AU        0.484154    0.115861    0.514105     0.007504
AU2353   AU        0.537409    0.077752    0.510663     0.007504
AU2354   AU        0.517516    0.110676    0.549283     0.007504
AU2355   AU        0.564886    0.092910    0.553790     0.007504
AU2356   AU        0.545838    0.118753    0.515858     0.007504
AU2357   AU        0.584698    0.092672    0.504531     0.007504
AU2358   AU        0.616733    0.109598    0.544918     0.007504
NI2359   NI        0.629168    0.047145    0.543244     0.004307
AU2360   AU        0.633841    0.121987    0.498190     0.007504
NI2361   NI        0.666866    0.091032    0.487301     0.004307
AU2362   AU        0.667650    0.115495    0.540896     0.007504
NI2363   NI        0.713280    0.123732    0.512250     0.004307
NI2364   NI        0.138850    0.176020    0.512430     0.004307
NI2365   NI        0.138588    0.143134    0.471646     0.004307
AU2366   AU        0.148001    0.205401    0.553659     0.007504
NI2367   NI        0.184468    0.172794    0.556281     0.004307
AU2368   AU        0.190862    0.183540    0.504592     0.007504
AU2369   AU        0.220404    0.144825    0.511774     0.007504
AU2370   AU        0.233151    0.183381    0.533852     0.007504
AU2371   AU        0.278058    0.154237    0.536159     0.007504
AU2372   AU        0.275786    0.195552    0.507443     0.007504
AU2373   AU        0.319492    0.135473    0.504870     0.007504
NI2374   NI        0.303071    0.197936    0.553014     0.004307
AU2375   AU        0.328840    0.158912    0.545467     0.007504
NI2376   NI        0.317027    0.184700    0.512933     0.004307
NI2377   NI        0.359586    0.171431    0.499378     0.004307
NI2378   NI        0.370792    0.193659    0.564025     0.004307
NI2379   NI        0.408993    0.159987    0.532642     0.004307
NI2380   NI        0.413019    0.190755    0.494198     0.004307
NI2381   NI        0.428480    0.150542    0.497274     0.004307
NI2382   NI        0.440022    0.199371    0.542725     0.004307
NI2383   NI        0.487729    0.154771    0.546858     0.004307
NI2384   NI        0.478882    0.189601    0.512789     0.004307
AU2385   AU        0.519238    0.153072    0.515586     0.007504
AU2386   AU        0.512302    0.200017    0.538047     0.007504
AU2387   AU        0.559524    0.139456    0.551547     0.007504
AU2388   AU        0.555718    0.183254    0.521325     0.007504
AU2389   AU        0.588961    0.140225    0.517948     0.007504
AU2390   AU        0.595533    0.177401    0.554093     0.007504
AU2391   AU        0.636376    0.156307    0.536144     0.007504
NI2392   NI        0.615898    0.198871    0.517530     0.004307
AU2393   AU        0.658793    0.166306    0.491779     0.007504
AU2394   AU        0.661905    0.201317    0.529887     0.007504
AU2395   AU        0.686378    0.161837    0.532302     0.007504
AU2396   AU        0.697050    0.199990    0.500033     0.007504
NI2397   NI        0.713362    0.132362    0.552471     0.004307
AU2398   AU        0.730457    0.168235    0.520155     0.007504
NI2399   NI        0.806237    0.228570    0.489804     0.004307
NI2400   NI        0.057762    0.262122    0.544247     0.004307
NI2401   NI        0.081095    0.245722    0.510750     0.004307
NI2402   NI        0.098977    0.230846    0.590327     0.004307
NI2403   NI        0.112686    0.236498    0.550362     0.004307
AU2404   AU        0.127328    0.264120    0.509916     0.007504
AU2405   AU        0.157779    0.224269    0.508155     0.007504
AU2406   AU        0.158713    0.255806    0.547611     0.007504
AU2407   AU        0.194104    0.216033    0.533582     0.007504
AU2408   AU        0.198136    0.260884    0.513960     0.007504
AU2409   AU        0.238563    0.226121    0.510954     0.007504
AU2410   AU        0.244172    0.267089    0.537485     0.007504
NI2411   NI        0.275825    0.229202    0.537703     0.004307
NI2412   NI        0.281508    0.274263    0.512319     0.004307
NI2413   NI        0.307766    0.234861    0.505336     0.004307
NI2414   NI        0.312618    0.258317    0.544562     0.004307
NI2415   NI        0.347069    0.215924    0.526332     0.004307
NI2416   NI        0.351040    0.253929    0.503623     0.004307
NI2417   NI        0.382880    0.225773    0.483146     0.004307
NI2418   NI        0.384370    0.240670    0.558254     0.004307
NI2419   NI        0.406275    0.232448    0.521121     0.004307
NI2420   NI        0.394781    0.271809    0.501687     0.004307
AU2421   AU        0.448415    0.222380    0.499319     0.007504
NI2422   NI        0.438554    0.253313    0.538065     0.004307
AU2423   AU        0.477263    0.233093    0.536362     0.007504
AU2424   AU        0.478957    0.265652    0.500272     0.007504
AU2425   AU        0.510634    0.230460    0.501173     0.007504
AU2426   AU        0.517091    0.269465    0.532321     0.007504
AU2427   AU        0.553626    0.234880    0.530374     0.007504
AU2428   AU        0.547704    0.262778    0.491366     0.007504
NI2429   NI        0.590955    0.233217    0.494646     0.004307
NI2430   NI        0.585642    0.262851    0.528677     0.004307
NI2431   NI        0.631633    0.242590    0.529338     0.004307
NI2432   NI        0.623133    0.276691    0.490067     0.004307
NI2433   NI        0.665102    0.242680    0.503647     0.004307
NI2434   NI        0.666032    0.275331    0.530797     0.004307
AU2435   AU        0.700961    0.232561    0.539126     0.007504
AU2436   AU        0.723318    0.266231    0.506723     0.007504
AU2437   AU        0.737260    0.221590    0.519310     0.007504
AU2438   AU        0.740409    0.260140    0.550319     0.007504
NI2439   NI        0.768138    0.192911    0.530543     0.004307
AU2440   AU        0.775968    0.258240    0.518227     0.007504
NI2441   NI        0.782796    0.192481    0.475239     0.004307
NI2442   NI        0.816696    0.260804    0.554307     0.004307
NI2443   NI        0.849820    0.272964    0.489695     0.004307
NI2444   NI        0.058591    0.310814    0.528732     0.004307
NI2445   NI        0.050965    0.359921    0.537092     0.004307
NI2446   NI        0.095485    0.293509    0.508576     0.004307
AU2447   AU        0.092790    0.331749    0.547881     0.007504
AU2448   AU        0.132789    0.299335    0.548816     0.007504
AU2449   AU        0.129149    0.331641    0.511299     0.007504
AU2450   AU        0.167640    0.294851    0.510633     0.007504
AU2451   AU        0.171119    0.334800    0.542628     0.007504
AU2452   AU        0.209660    0.303876    0.542180     0.007504
AU2453   AU        0.206284    0.340719    0.507287     0.007504
NI2454   NI        0.242822    0.304927    0.509422     0.004307
NI2455   NI        0.239055    0.344887    0.543979     0.004307
NI2456   NI        0.281199    0.317614    0.543367     0.004307
NI2457   NI        0.288190    0.329855    0.504867     0.004307
NI2458   NI        0.319733    0.301017    0.483428     0.004307
NI2459   NI        0.278168    0.366846    0.547589     0.004307
NI2460   NI        0.357094    0.276870    0.537380     0.004307
NI2461   NI        0.316898    0.345254    0.542170     0.004307
NI2462   NI        0.356370    0.329597    0.499682     0.004307
AU2463   AU        0.367065    0.334472    0.550619     0.007504
AU2464   AU        0.399052    0.289764    0.543950     0.007504
AU2465   AU        0.400604    0.327815    0.510523     0.007504
AU2466   AU        0.439664    0.296163    0.514822     0.007504
AU2467   AU        0.450617    0.344670    0.529123     0.007504
AU2468   AU        0.481880    0.305382    0.526919     0.007504
AU2469   AU        0.490972    0.346179    0.501430     0.007504
AU2470   AU        0.515730    0.300801    0.492526     0.007504
NI2471   NI        0.523370    0.319477    0.540486     0.004307
AU2472   AU        0.555546    0.299075    0.525211     0.007504
AU2473   AU        0.540973    0.345259    0.495044     0.007504
NI2474   NI        0.614102    0.318331    0.484054     0.004307
NI2475   NI        0.603213    0.346321    0.557049     0.004307
NI2476   NI        0.630521    0.301340    0.537454     0.004307
NI2477   NI        0.628692    0.346487    0.525082     0.004307
NI2478   NI        0.655281    0.325961    0.492081     0.004307
NI2479   NI        0.667896    0.333814    0.533903     0.004307
NI2480   NI        0.704639    0.289971    0.544910     0.004307
NI2481   NI        0.706338    0.315757    0.513985     0.004307
NI2482   NI        0.738606    0.333546    0.483544     0.004307
NI2483   NI        0.734680    0.341410    0.560921     0.004307
AU2484   AU        0.749079    0.302495    0.524023     0.007504
NI2485   NI        0.773924    0.329688    0.502953     0.004307
AU2486   AU        0.809040    0.294299    0.517166     0.007504
AU2487   AU        0.786942    0.334126    0.543383     0.007504
NI2488   NI        0.862300    0.315525    0.540000     0.004307
NI2489   NI        0.843510    0.344576    0.478662     0.004307
AU2490   AU        0.061788    0.407699    0.517045     0.007504
AU2491   AU        0.068865    0.444635    0.484648     0.007504
AU2492   AU        0.095145    0.369780    0.512490     0.007504
AU2493   AU        0.104983    0.411984    0.543238     0.007504
AU2494   AU        0.130428    0.368929    0.543034     0.007504
AU2495   AU        0.124267    0.404056    0.505058     0.007504
AU2496   AU        0.161375    0.372062    0.509205     0.007504
AU2497   AU        0.157857    0.409789    0.544183     0.007504
AU2498   AU        0.197928    0.376811    0.541549     0.007504
AU2499   AU        0.193266    0.413650    0.510308     0.007504
NI2500   NI        0.245696    0.382567    0.525074     0.004307
NI2501   NI        0.232174    0.416150    0.547521     0.004307
NI2502   NI        0.278167    0.409742    0.537575     0.004307
NI2503   NI        0.277489    0.389639    0.497963     0.004307
NI2504   NI        0.319208    0.376272    0.507991     0.004307
AU2505   AU        0.316034    0.395153    0.558627     0.007504
AU2506   AU        0.356180    0.377297    0.536981     0.007504
AU2507   AU        0.354035    0.404835    0.493152     0.007504
NI2508   NI        0.373767    0.364010    0.480193     0.004307
AU2509   AU        0.385843    0.410920    0.531649     0.007504
AU2510   AU        0.414591    0.373429    0.521652     0.007504
AU2511   AU        0.418182    0.411039    0.492662     0.007504
AU2512   AU        0.457366    0.381454    0.495370     0.007504
AU2513   AU        0.446220    0.415413    0.529195     0.007504
NI2514   NI        0.487481    0.383025    0.528141     0.004307
NI2515   NI        0.484655    0.420514    0.497983     0.004307
NI2516   NI        0.517433    0.386654    0.495766     0.004307
NI2517   NI        0.543756    0.438119    0.545301     0.004307
NI2518   NI        0.569822    0.378595    0.538817     0.004307
NI2519   NI        0.566135    0.392471    0.495232     0.004307
AU2520   AU        0.583852    0.344656    0.514116     0.007504
NI2521   NI        0.597757    0.403129    0.566388     0.004307
NI2522   NI        0.642430    0.381027    0.547220     0.004307
AU2523   AU        0.608853    0.393826    0.513898     0.007504
NI2524   NI        0.664832    0.373693    0.499514     0.004307
NI2525   NI        0.659169    0.415065    0.522276     0.004307
NI2526   NI        0.701477    0.361149    0.536595     0.004307
NI2527   NI        0.712956    0.371499    0.488714     0.004307
NI2528   NI        0.747019    0.352760    0.523897     0.004307
NI2529   NI        0.728485    0.393602    0.528836     0.004307
AU2530   AU        0.771797    0.370319    0.570319     0.007504
AU2531   AU        0.771090    0.388791    0.518209     0.007504
AU2532   AU        0.811809    0.358243    0.503963     0.007504
AU2533   AU        0.796332    0.410063    0.554399     0.007504
NI2534   NI        0.842121    0.415864    0.534501     0.004307
AU2535   AU        0.809240    0.403317    0.503827     0.007504
NI2536   NI        0.023751    0.409895    0.495083     0.004307
NI2537   NI        0.044070    0.429062    0.556727     0.004307
NI2538   NI        0.043209    0.482523    0.538361     0.004307
AU2539   AU        0.075456    0.451933    0.534414     0.007504
AU2540   AU        0.084065    0.495130    0.527501     0.007504
AU2541   AU        0.119221    0.463805    0.552829     0.007504
AU2542   AU        0.112233    0.459582    0.509101     0.007504
AU2543   AU        0.154124    0.447021    0.514676     0.007504
AU2544   AU        0.155086    0.484235    0.564746     0.007504
AU2545   AU        0.190803    0.450072    0.546673     0.007504
AU2546   AU        0.178731    0.493806    0.522037     0.007504
NI2547   NI        0.245968    0.426434    0.509804     0.004307
NI2548   NI        0.234369    0.471152    0.537651     0.004307
NI2549   NI        0.272197    0.451514    0.567976     0.004307
AU2550   AU        0.273225    0.460976    0.504717     0.007504
AU2551   AU        0.311021    0.427631    0.501956     0.007504
AU2552   AU        0.309994    0.463917    0.536883     0.007504
AU2553   AU        0.345057    0.431817    0.535771     0.007504
AU2554   AU        0.347240    0.477694    0.516029     0.007504
AU2555   AU        0.377373    0.443063    0.496820     0.007504
NI2556   NI        0.388024    0.461806    0.535925     0.004307
AU2557   AU        0.424646    0.456691    0.510062     0.007504
NI2558   NI        0.416133    0.504232    0.511337     0.004307
NI2559   NI        0.460869    0.457597    0.487422     0.004307
NI2560   NI        0.440766    0.491320    0.542213     0.004307
NI2561   NI        0.466163    0.454875    0.535326     0.004307
NI2562   NI        0.494513    0.487223    0.541315     0.004307
NI2563   NI        0.540183    0.422267    0.504371     0.004307
NI2564   NI        0.495885    0.480963    0.598432     0.004307
NI2565   NI        0.581124    0.429987    0.523204     0.004307
NI2566   NI        0.534430    0.473983    0.503206     0.004307
NI2567   NI        0.613354    0.437648    0.486912     0.004307
AU2568   AU        0.596321    0.489249    0.533462     0.007504
NI2569   NI        0.619674    0.443280    0.535401     0.004307
AU2570   AU        0.640354    0.474231    0.510277     0.007504
NI2571   NI        0.664791    0.453242    0.471061     0.004307
NI2572   NI        0.681567    0.465184    0.557778     0.004307
NI2573   NI        0.707121    0.422006    0.552837     0.004307
NI2574   NI        0.696408    0.479880    0.514818     0.004307
NI2575   NI        0.712979    0.435542    0.500456     0.004307
AU2576   AU        0.732864    0.481361    0.551536     0.007504
AU2577   AU        0.753525    0.435089    0.537220     0.007504
AU2578   AU        0.772421    0.478886    0.519289     0.007504
AU2579   AU        0.802508    0.444287    0.524472     0.007504
AU2580   AU        0.810598    0.485203    0.548129     0.007504
AU2581   AU        0.827947    0.447328    0.560897     0.007504
AU2582   AU        0.838797    0.516602    0.482464     0.007504
NI2583   NI        0.854051    0.386306    0.504006     0.004307
NI2584   NI        0.063177    0.516557    0.574631     0.004307
NI2585   NI        0.078127    0.571846    0.511987     0.004307
AU2586   AU        0.084454    0.524614    0.485362     0.007504
AU2587   AU        0.090878    0.539761    0.537402     0.007504
AU2588   AU        0.132483    0.518462    0.525589     0.007504
AU2589   AU        0.123630    0.559062    0.493741     0.007504
AU2590   AU        0.168573    0.528025    0.487906     0.007504
AU2591   AU        0.169748    0.548205    0.534741     0.007504
AU2592   AU        0.206725    0.540199    0.562062     0.007504
AU2593   AU        0.207666    0.537681    0.513209     0.007504
AU2594   AU        0.234058    0.498970    0.503923     0.007504
AU2595   AU        0.247080    0.541736    0.530230     0.007504
AU2596   AU        0.273187    0.502523    0.533580     0.007504
NI2597   NI        0.294689    0.535232    0.547552     0.004307
AU2598   AU        0.310328    0.503460    0.508044     0.007504
NI2599   NI        0.335092    0.527542    0.537491     0.004307
NI2600   NI        0.377025    0.508714    0.539072     0.004307
NI2601   NI        0.329767    0.544819    0.500216     0.004307
NI2602   NI        0.362463    0.519037    0.494628     0.004307
NI2603   NI        0.368287    0.561499    0.521697     0.004307
NI2604   NI        0.401775    0.535906    0.563290     0.004307
NI2605   NI        0.403229    0.550709    0.497784     0.004307
NI2606   NI        0.466577    0.496975    0.501917     0.004307
NI2607   NI        0.412827    0.570569    0.532971     0.004307
NI2608   NI        0.445105    0.532315    0.548110     0.004307
NI2609   NI        0.463532    0.541465    0.496190     0.004307
NI2610   NI        0.517724    0.513480    0.515405     0.004307
NI2611   NI        0.491574    0.540463    0.549087     0.004307
NI2612   NI        0.549288    0.489698    0.546549     0.004307
NI2613   NI        0.542832    0.554094    0.524982     0.004307
AU2614   AU        0.614369    0.514380    0.494978     0.007504
AU2615   AU        0.587463    0.539369    0.534707     0.007504
NI2616   NI        0.623370    0.519518    0.546876     0.004307
NI2617   NI        0.622358    0.558640    0.512402     0.004307
AU2618   AU        0.658340    0.520472    0.519658     0.007504
AU2619   AU        0.663471    0.553904    0.549074     0.007504
AU2620   AU        0.699101    0.516906    0.549590     0.007504
AU2621   AU        0.698951    0.552578    0.512473     0.007504
AU2622   AU        0.734664    0.515037    0.513166     0.007504
AU2623   AU        0.735733    0.552626    0.545422     0.007504
AU2624   AU        0.771718    0.519390    0.550422     0.007504
AU2625   AU        0.769342    0.554125    0.512692     0.007504
AU2626   AU        0.804585    0.519863    0.513163     0.007504
AU2627   AU        0.807720    0.557669    0.545566     0.007504
NI2628   NI        0.844495    0.504448    0.529002     0.004307
NI2629   NI        0.841899    0.568458    0.511994     0.004307
NI2630   NI        0.049006    0.624184    0.495478     0.004307
NI2631   NI        0.043818    0.595543    0.444876     0.004307
NI2632   NI        0.095305    0.611497    0.510798     0.004307
NI2633   NI        0.061930    0.599366    0.547618     0.004307
AU2634   AU        0.109468    0.605714    0.554607     0.007504
AU2635   AU        0.137428    0.607236    0.511972     0.007504
NI2636   NI        0.168125    0.580857    0.495504     0.004307
AU2637   AU        0.153801    0.631825    0.552890     0.007504
AU2638   AU        0.210244    0.584906    0.536601     0.007504
AU2639   AU        0.201125    0.609701    0.497232     0.007504
AU2640   AU        0.236802    0.574969    0.499263     0.007504
NI2641   NI        0.241123    0.616883    0.531203     0.004307
NI2642   NI        0.276952    0.582442    0.530248     0.004307
AU2643   AU        0.270126    0.616194    0.498727     0.007504
NI2644   NI        0.308161    0.591304    0.493453     0.004307
NI2645   NI        0.307256    0.630191    0.520365     0.004307
NI2646   NI        0.328597    0.583050    0.528758     0.004307
NI2647   NI        0.346692    0.634932    0.511407     0.004307
NI2648   NI        0.350192    0.595010    0.493477     0.004307
NI2649   NI        0.375417    0.646715    0.545706     0.004307
NI2650   NI        0.359334    0.608637    0.544719     0.004307
NI2651   NI        0.392292    0.605062    0.505825     0.004307
AU2652   AU        0.462849    0.623954    0.502683     0.007504
NI2653   NI        0.424532    0.613458    0.533198     0.004307
AU2654   AU        0.461310    0.578044    0.531730     0.007504
NI2655   NI        0.461852    0.653352    0.551629     0.004307
NI2656   NI        0.504794    0.597389    0.518451     0.004307
NI2657   NI        0.485595    0.610442    0.565044     0.004307
NI2658   NI        0.560613    0.599680    0.544355     0.004307
NI2659   NI        0.542614    0.626080    0.503399     0.004307
NI2660   NI        0.582290    0.602360    0.508589     0.004307
NI2661   NI        0.614184    0.613249    0.538119     0.004307
NI2662   NI        0.615858    0.573183    0.555175     0.004307
NI2663   NI        0.639357    0.626108    0.502909     0.004307
AU2664   AU        0.662771    0.588581    0.512148     0.007504
AU2665   AU        0.664472    0.626733    0.547474     0.007504
AU2666   AU        0.696308    0.589184    0.545892     0.007504
AU2667   AU        0.697945    0.623773    0.509791     0.007504
AU2668   AU        0.733977    0.590601    0.512230     0.007504
AU2669   AU        0.732434    0.625694    0.544057     0.007504
AU2670   AU        0.768781    0.591018    0.546318     0.007504
AU2671   AU        0.765868    0.624837    0.509217     0.007504
AU2672   AU        0.801335    0.591014    0.509270     0.007504
NI2673   NI        0.808003    0.633388    0.521026     0.004307
NI2674   NI        0.815728    0.604097    0.559081     0.004307
NI2675   NI        0.815753    0.659491    0.570535     0.004307
NI2676   NI        0.088381    0.652151    0.487868     0.004307
NI2677   NI        0.116870    0.647358    0.520112     0.004307
NI2678   NI        0.137557    0.683020    0.511795     0.004307
AU2679   AU        0.168141    0.646795    0.505366     0.007504
AU2680   AU        0.167615    0.682408    0.541811     0.007504
AU2681   AU        0.202230    0.646056    0.536480     0.007504
AU2682   AU        0.202016    0.684985    0.504822     0.007504
AU2683   AU        0.233870    0.650650    0.496235     0.007504
AU2684   AU        0.211757    0.693409    0.548217     0.007504
AU2685   AU        0.251371    0.660100    0.550406     0.007504
AU2686   AU        0.249560    0.698646    0.518475     0.007504
AU2687   AU        0.282262    0.665140    0.508825     0.007504
AU2688   AU        0.289046    0.694853    0.549779     0.007504
NI2689   NI        0.328016    0.665624    0.550702     0.004307
NI2690   NI        0.328912    0.682119    0.512431     0.004307
NI2691   NI        0.390688    0.655974    0.505115     0.004307
NI2692   NI        0.381043    0.693327    0.528950     0.004307
NI2693   NI        0.414811    0.660721    0.552209     0.004307
NI2694   NI        0.423742    0.696574    0.509457     0.004307
NI2695   NI        0.424662    0.648569    0.483396     0.004307
NI2696   NI        0.451322    0.696023    0.543324     0.004307
NI2697   NI        0.499052    0.677489    0.550414     0.004307
NI2698   NI        0.488327    0.692915    0.510921     0.004307
AU2699   AU        0.504391    0.649281    0.508150     0.007504
NI2700   NI        0.542282    0.664637    0.576544     0.004307
NI2701   NI        0.532995    0.639075    0.542611     0.004307
NI2702   NI        0.542588    0.697008    0.532577     0.004307
NI2703   NI        0.601010    0.642730    0.498885     0.004307
NI2704   NI        0.576653    0.659365    0.531353     0.004307
NI2705   NI        0.628017    0.653002    0.543605     0.004307
NI2706   NI        0.626232    0.698429    0.509939     0.004307
AU2707   AU        0.668396    0.665744    0.514466     0.007504
AU2708   AU        0.666656    0.685708    0.553291     0.007504
AU2709   AU        0.704174    0.657168    0.550702     0.007504
AU2710   AU        0.700795    0.702471    0.516173     0.007504
AU2711   AU        0.733224    0.663775    0.510190     0.007504
NI2712   NI        0.741608    0.685134    0.554352     0.004307
NI2713   NI        0.772126    0.640139    0.553055     0.004307
NI2714   NI        0.790482    0.716372    0.508387     0.004307
NI2715   NI        0.803159    0.678362    0.523497     0.004307
AU2716   AU        0.169265    0.722654    0.514542     0.007504
NI2717   NI        0.197820    0.742052    0.554860     0.004307
NI2718   NI        0.187339    0.767607    0.504915     0.004307
AU2719   AU        0.222436    0.732202    0.513685     0.007504
NI2720   NI        0.222527    0.773663    0.528643     0.004307
AU2721   AU        0.269736    0.739888    0.532081     0.007504
AU2722   AU        0.272616    0.797947    0.477800     0.007504
AU2723   AU        0.295637    0.714948    0.503578     0.007504
AU2724   AU        0.307124    0.765978    0.558120     0.007504
NI2725   NI        0.325931    0.718338    0.548704     0.004307
AU2726   AU        0.336800    0.753536    0.517893     0.007504
NI2727   NI        0.384158    0.708990    0.490924     0.004307
AU2728   AU        0.387305    0.742689    0.524073     0.007504
NI2729   NI        0.426852    0.733005    0.540329     0.004307
AU2730   AU        0.424774    0.779482    0.508289     0.007504
NI2731   NI        0.452427    0.736924    0.508202     0.004307
AU2732   AU        0.458533    0.765359    0.542653     0.007504
NI2733   NI        0.491644    0.728749    0.540279     0.004307
NI2734   NI        0.477855    0.779714    0.506635     0.004307
NI2735   NI        0.526407    0.733357    0.497447     0.004307
NI2736   NI        0.530679    0.776021    0.564810     0.004307
NI2737   NI        0.555657    0.745313    0.540841     0.004307
NI2738   NI        0.559664    0.770676    0.507939     0.004307
NI2739   NI        0.577131    0.716125    0.515174     0.004307
NI2740   NI        0.608973    0.768384    0.563593     0.004307
AU2741   AU        0.621898    0.739063    0.520367     0.007504
NI2742   NI        0.601277    0.783077    0.523503     0.004307
AU2743   AU        0.674001    0.739882    0.517573     0.007504
NI2744   NI        0.650170    0.779471    0.533150     0.004307
AU2745   AU        0.700959    0.720250    0.556376     0.007504
NI2746   NI        0.722648    0.753499    0.519553     0.004307
NI2747   NI        0.744552    0.712472    0.514370     0.004307
NI2748   NI        0.232987    0.810897    0.497400     0.004307
NI2749   NI        0.263550    0.780668    0.523934     0.004307
NI2750   NI        0.273708    0.829811    0.527443     0.004307
AU2751   AU        0.303825    0.792141    0.517396     0.007504
NI2752   NI        0.313071    0.813554    0.565567     0.004307
AU2753   AU        0.337953    0.785145    0.589257     0.007504
NI2754   NI        0.388868    0.870925    0.526362     0.004307
AU2755   AU        0.375247    0.785593    0.519399     0.007504
AU2756   AU        0.365297    0.808410    0.557484     0.007504
AU2757   AU        0.409792    0.819386    0.536661     0.007504
NI2758   NI        0.369029    0.833342    0.509529     0.004307
AU2759   AU        0.458613    0.812567    0.527768     0.007504
NI2760   NI        0.438975    0.853944    0.540437     0.004307
AU2761   AU        0.498086    0.803760    0.546698     0.007504
NI2762   NI        0.515591    0.855043    0.505132     0.004307
NI2763   NI        0.524404    0.794535    0.507329     0.004307
NI2764   NI        0.567075    0.870941    0.558449     0.004307
NI2765   NI        0.563636    0.795834    0.548316     0.004307
NI2766   NI        0.569466    0.856275    0.505769     0.004307
NI2767   NI        0.569719    0.812461    0.509180     0.004307
NI2768   NI        0.605967    0.817448    0.562406     0.004307
NI2769   NI        0.651029    0.819100    0.549807     0.004307
NI2770   NI        0.625968    0.823436    0.513528     0.004307
NI2771   NI        0.666820    0.813707    0.506355     0.004307
NI2772   NI        0.427699    0.884105    0.483322     0.004307
NI2773   NI        0.291019    0.032614    0.601286     0.004307
NI2774   NI        0.399113    0.064993    0.635216     0.004307
NI2775   NI        0.382544    0.093814    0.552228     0.004307
NI2776   NI        0.439128    0.060238    0.600603     0.004307
AU2777   AU        0.488392    0.077269    0.589424     0.007504
NI2778   NI        0.537779    0.074747    0.624353     0.004307
NI2779   NI        0.582931    0.048336    0.577518     0.004307
NI2780   NI        0.206013    0.125301    0.546116     0.004307
NI2781   NI        0.214906    0.123825    0.586054     0.004307
NI2782   NI        0.239824    0.116857    0.622472     0.004307
NI2783   NI        0.282143    0.103627    0.581242     0.004307
NI2784   NI        0.322797    0.068152    0.597486     0.004307
AU2785   AU        0.293779    0.120232    0.622107     0.007504
NI2786   NI        0.372433    0.097394    0.644589     0.004307
AU2787   AU        0.336490    0.115011    0.589268     0.007504
AU2788   AU        0.379501    0.093176    0.597598     0.007504
AU2789   AU        0.376589    0.139036    0.615906     0.007504
AU2790   AU        0.420129    0.110334    0.618664     0.007504
AU2791   AU        0.404750    0.127392    0.574954     0.007504
AU2792   AU        0.450438    0.110579    0.584204     0.007504
AU2793   AU        0.463711    0.135839    0.626069     0.007504
NI2794   NI        0.504030    0.043001    0.612758     0.004307
AU2795   AU        0.492365    0.125926    0.587424     0.007504
AU2796   AU        0.532952    0.070521    0.573650     0.007504
AU2797   AU        0.509398    0.110026    0.628836     0.007504
NI2798   NI        0.573677    0.079895    0.602079     0.004307
AU2799   AU        0.539886    0.116557    0.591482     0.007504
NI2800   NI        0.605122    0.096952    0.583401     0.004307
NI2801   NI        0.585062    0.122846    0.620101     0.004307
NI2802   NI        0.594784    0.098298    0.659140     0.004307
AU2803   AU        0.620141    0.146533    0.580738     0.007504
NI2804   NI        0.698528    0.121064    0.597273     0.004307
NI2805   NI        0.662642    0.079042    0.574596     0.004307
NI2806   NI        0.159435    0.142148    0.542489     0.004307
NI2807   NI        0.180810    0.149202    0.589106     0.004307
NI2808   NI        0.159295    0.188842    0.599335     0.004307
AU2809   AU        0.221138    0.174362    0.582452     0.007504
AU2810   AU        0.189023    0.216801    0.580895     0.007504
NI2811   NI        0.257465    0.136478    0.577598     0.004307
AU2812   AU        0.234818    0.209410    0.607239     0.007504
AU2813   AU        0.259989    0.161065    0.615783     0.007504
AU2814   AU        0.265053    0.185590    0.573115     0.007504
AU2815   AU        0.298142    0.154237    0.583681     0.007504
AU2816   AU        0.294540    0.192104    0.617608     0.007504
AU2817   AU        0.332599    0.155314    0.622791     0.007504
AU2818   AU        0.330089    0.191464    0.585775     0.007504
NI2819   NI        0.359172    0.157041    0.580328     0.004307
AU2820   AU        0.371656    0.188845    0.617758     0.007504
AU2821   AU        0.424850    0.157752    0.605979     0.007504
NI2822   NI        0.407024    0.203906    0.586577     0.004307
NI2823   NI        0.454506    0.160010    0.576406     0.004307
AU2824   AU        0.446909    0.204967    0.609665     0.007504
AU2825   AU        0.488733    0.173543    0.605487     0.007504
AU2826   AU        0.483716    0.201103    0.572215     0.007504
AU2827   AU        0.524930    0.163366    0.575587     0.007504
AU2828   AU        0.526343    0.206874    0.603709     0.007504
AU2829   AU        0.530040    0.155146    0.621253     0.007504
AU2830   AU        0.554359    0.201704    0.565698     0.007504
AU2831   AU        0.572294    0.159092    0.594341     0.007504
AU2832   AU        0.582005    0.208573    0.600843     0.007504
AU2833   AU        0.623544    0.148634    0.630037     0.007504
AU2834   AU        0.639409    0.191752    0.571038     0.007504
AU2835   AU        0.669929    0.152355    0.579576     0.007504
AU2836   AU        0.654953    0.183440    0.618318     0.007504
NI2837   NI        0.715446    0.191011    0.617719     0.004307
AU2838   AU        0.693909    0.194487    0.569721     0.007504
NI2839   NI        0.732830    0.164655    0.575084     0.004307
NI2840   NI        0.760258    0.188557    0.602169     0.004307
NI2841   NI        0.735548    0.149372    0.651594     0.004307
NI2842   NI        0.096481    0.271327    0.618613     0.004307
NI2843   NI        0.138601    0.264503    0.632189     0.004307
AU2844   AU        0.129416    0.271002    0.587599     0.007504
AU2845   AU        0.142787    0.230473    0.589474     0.007504
AU2846   AU        0.173908    0.269894    0.606901     0.007504
AU2847   AU        0.176494    0.227359    0.627507     0.007504
AU2848   AU        0.205575    0.262013    0.569281     0.007504
AU2849   AU        0.234008    0.221369    0.562038     0.007504
AU2850   AU        0.214140    0.255749    0.610220     0.007504
AU2851   AU        0.258776    0.245940    0.632885     0.007504
NI2852   NI        0.259010    0.272639    0.583938     0.004307
NI2853   NI        0.286135    0.228940    0.593885     0.004307
AU2854   AU        0.298046    0.269009    0.618947     0.007504
AU2855   AU        0.330919    0.229226    0.619088     0.007504
NI2856   NI        0.334961    0.283157    0.598976     0.004307
NI2857   NI        0.342365    0.242513    0.571069     0.004307
NI2858   NI        0.370259    0.256885    0.619557     0.004307
AU2859   AU        0.405268    0.229959    0.623031     0.007504
AU2860   AU        0.406816    0.265434    0.585088     0.007504
AU2861   AU        0.446149    0.239007    0.576953     0.007504
NI2862   NI        0.446797    0.264399    0.621090     0.004307
AU2863   AU        0.488636    0.240554    0.605218     0.007504
AU2864   AU        0.482233    0.270794    0.566564     0.007504
AU2865   AU        0.519410    0.237618    0.568049     0.007504
NI2866   NI        0.515435    0.277495    0.601076     0.004307
NI2867   NI        0.550965    0.245842    0.606614     0.004307
AU2868   AU        0.552640    0.271816    0.568306     0.007504
NI2869   NI        0.606258    0.227288    0.565273     0.004307
NI2870   NI        0.594472    0.258901    0.592680     0.004307
AU2871   AU        0.638685    0.229229    0.607887     0.007504
NI2872   NI        0.626958    0.269057    0.569536     0.004307
AU2873   AU        0.658435    0.237879    0.568136     0.007504
AU2874   AU        0.664122    0.267722    0.607739     0.007504
AU2875   AU        0.685727    0.223521    0.609849     0.007504
AU2876   AU        0.701866    0.261952    0.580597     0.007504
NI2877   NI        0.776641    0.255350    0.587714     0.004307
NI2878   NI        0.734887    0.260937    0.611473     0.004307
AU2879   AU        0.735357    0.224819    0.582717     0.007504
AU2880   AU        0.777979    0.293993    0.557210     0.007504
NI2881   NI        0.799768    0.293273    0.607893     0.004307
NI2882   NI        0.071531    0.342913    0.592136     0.004307
NI2883   NI        0.094246    0.280002    0.550164     0.004307
NI2884   NI        0.101461    0.304540    0.588259     0.004307
AU2885   AU        0.141010    0.306936    0.617247     0.007504
AU2886   AU        0.134869    0.333493    0.579887     0.007504
AU2887   AU        0.169800    0.299171    0.575235     0.007504
AU2888   AU        0.169233    0.345643    0.616589     0.007504
AU2889   AU        0.193734    0.309121    0.623766     0.007504
AU2890   AU        0.205189    0.335016    0.582172     0.007504
NI2891   NI        0.222801    0.296202    0.592569     0.004307
AU2892   AU        0.236613    0.333524    0.623102     0.007504
AU2893   AU        0.256835    0.296240    0.629723     0.007504
NI2894   NI        0.253397    0.314646    0.573191     0.004307
NI2895   NI        0.325580    0.309402    0.566515     0.004307
NI2896   NI        0.297086    0.312527    0.618318     0.004307
NI2897   NI        0.335916    0.309202    0.640018     0.004307
AU2898   AU        0.351281    0.368859    0.585427     0.007504
NI2899   NI        0.369438    0.294069    0.577272     0.004307
AU2900   AU        0.388994    0.335509    0.594817     0.007504
NI2901   NI        0.407067    0.301038    0.627982     0.004307
AU2902   AU        0.418506    0.333264    0.554571     0.007504
AU2903   AU        0.444914    0.292830    0.561988     0.007504
AU2904   AU        0.443217    0.330663    0.597225     0.007504
NI2905   NI        0.487174    0.307538    0.588411     0.004307
NI2906   NI        0.488310    0.340012    0.555930     0.004307
NI2907   NI        0.527873    0.322895    0.582150     0.004307
NI2908   NI        0.527499    0.315186    0.626056     0.004307
NI2909   NI        0.568409    0.303758    0.605880     0.004307
NI2910   NI        0.564378    0.335268    0.555673     0.004307
NI2911   NI        0.591327    0.300949    0.567038     0.004307
NI2912   NI        0.608128    0.344217    0.615344     0.004307
NI2913   NI        0.629456    0.302219    0.607879     0.004307
NI2914   NI        0.641245    0.330401    0.572540     0.004307
NI2915   NI        0.678845    0.305640    0.574951     0.004307
NI2916   NI        0.664316    0.331910    0.610265     0.004307
AU2917   AU        0.707385    0.297847    0.617450     0.007504
NI2918   NI        0.696971    0.340933    0.582711     0.004307
AU2919   AU        0.737492    0.301785    0.578889     0.007504
AU2920   AU        0.734739    0.343756    0.609843     0.007504
NI2921   NI        0.758126    0.296053    0.616454     0.004307
AU2922   AU        0.779630    0.330871    0.589894     0.007504
NI2923   NI        0.819417    0.309361    0.562521     0.004307
NI2924   NI        0.839073    0.337387    0.607426     0.004307
NI2925   NI        0.856683    0.362546    0.550600     0.004307
NI2926   NI        0.063217    0.374830    0.647437     0.004307
NI2927   NI        0.055950    0.390733    0.565097     0.004307
NI2928   NI        0.092542    0.371661    0.562292     0.004307
AU2929   AU        0.084914    0.387198    0.608221     0.007504
AU2930   AU        0.126572    0.360660    0.612945     0.007504
AU2931   AU        0.124132    0.399836    0.581697     0.007504
AU2932   AU        0.167632    0.369515    0.580274     0.007504
AU2933   AU        0.160629    0.394857    0.615028     0.007504
NI2934   NI        0.215832    0.370849    0.619685     0.004307
AU2935   AU        0.200747    0.409653    0.577387     0.007504
NI2936   NI        0.243305    0.382354    0.574333     0.004307
NI2937   NI        0.244944    0.409697    0.621516     0.004307
NI2938   NI        0.302504    0.370434    0.614306     0.004307
NI2939   NI        0.279133    0.405661    0.587050     0.004307
NI2940   NI        0.297212    0.337388    0.580474     0.004307
NI2941   NI        0.320051    0.406269    0.608474     0.004307
NI2942   NI        0.346392    0.379876    0.632684     0.004307
AU2943   AU        0.356904    0.416766    0.576643     0.007504
AU2944   AU        0.392979    0.377598    0.568159     0.007504
NI2945   NI        0.377418    0.414591    0.620736     0.004307
NI2946   NI        0.415064    0.384563    0.606669     0.004307
NI2947   NI        0.410421    0.417306    0.570679     0.004307
NI2948   NI        0.466551    0.396745    0.567797     0.004307
NI2949   NI        0.435221    0.440323    0.601069     0.004307
NI2950   NI        0.494669    0.345603    0.611252     0.004307
NI2951   NI        0.503038    0.437447    0.543130     0.004307
NI2952   NI        0.531419    0.361434    0.545697     0.004307
NI2953   NI        0.507959    0.389468    0.568357     0.004307
NI2954   NI        0.533869    0.365100    0.590609     0.004307
NI2955   NI        0.578246    0.421978    0.599697     0.004307
NI2956   NI        0.576937    0.364365    0.588340     0.004307
NI2957   NI        0.608057    0.410690    0.628969     0.004307
AU2958   AU        0.644161    0.375928    0.617680     0.007504
NI2959   NI        0.629437    0.418685    0.593650     0.004307
NI2960   NI        0.671225    0.376160    0.581697     0.004307
AU2961   AU        0.659410    0.416367    0.637134     0.007504
AU2962   AU        0.695508    0.375289    0.624242     0.007504
AU2963   AU        0.689028    0.416812    0.599380     0.007504
AU2964   AU        0.725238    0.384645    0.581287     0.007504
AU2965   AU        0.732673    0.412186    0.624999     0.007504
AU2966   AU        0.768706    0.375450    0.616480     0.007504
AU2967   AU        0.763092    0.411396    0.582376     0.007504
AU2968   AU        0.814887    0.373443    0.545320     0.007504
NI2969   NI        0.808482    0.377893    0.641819     0.004307
AU2970   AU        0.813335    0.383099    0.598194     0.007504
NI2971   NI        0.867644    0.467517    0.555705     0.004307
NI2972   NI        0.042190    0.437926    0.610158     0.004307
AU2973   AU        0.076146    0.473993    0.574257     0.007504
AU2974   AU        0.084705    0.430880    0.582878     0.007504
NI2975   NI        0.076041    0.465229    0.618638     0.004307
AU2976   AU        0.115822    0.428630    0.621413     0.007504
AU2977   AU        0.119441    0.468399    0.597158     0.007504
AU2978   AU        0.159137    0.437766    0.585393     0.007504
AU2979   AU        0.166406    0.482837    0.610770     0.007504
AU2980   AU        0.203673    0.447211    0.610679     0.007504
AU2981   AU        0.202811    0.491934    0.575062     0.007504
NI2982   NI        0.228925    0.451539    0.574822     0.004307
NI2983   NI        0.228466    0.480204    0.626037     0.004307
NI2984   NI        0.279284    0.432345    0.620814     0.004307
NI2985   NI        0.295062    0.476459    0.608438     0.004307
AU2986   AU        0.314364    0.441067    0.577354     0.007504
NI2987   NI        0.335126    0.463701    0.658024     0.004307
NI2988   NI        0.339885    0.446855    0.612384     0.004307
AU2989   AU        0.350727    0.470893    0.565686     0.007504
NI2990   NI        0.390853    0.449245    0.591437     0.004307
NI2991   NI        0.375427    0.459896    0.636419     0.004307
NI2992   NI        0.418684    0.477303    0.609826     0.004307
NI2993   NI        0.391748    0.496346    0.581506     0.004307
NI2994   NI        0.426154    0.450461    0.553200     0.004307
NI2995   NI        0.473186    0.503936    0.630172     0.004307
NI2996   NI        0.468945    0.462733    0.635467     0.004307
NI2997   NI        0.476543    0.448756    0.578253     0.004307
NI2998   NI        0.530821    0.417313    0.595929     0.004307
NI2999   NI        0.510663    0.480299    0.638968     0.004307
NI3000   NI        0.554548    0.439811    0.637785     0.004307
NI3001   NI        0.540468    0.490236    0.589740     0.004307
AU3002   AU        0.588591    0.456754    0.566250     0.007504
NI3003   NI        0.577567    0.474755    0.615321     0.004307
NI3004   NI        0.630233    0.450249    0.633180     0.004307
NI3005   NI        0.635877    0.474424    0.560314     0.004307
NI3006   NI        0.655708    0.429634    0.561958     0.004307
NI3007   NI        0.661263    0.456211    0.604707     0.004307
AU3008   AU        0.703778    0.452101    0.629098     0.007504
AU3009   AU        0.700245    0.487627    0.588965     0.007504
AU3010   AU        0.728511    0.447902    0.584764     0.007504
AU3011   AU        0.738254    0.485770    0.622382     0.007504
AU3012   AU        0.762070    0.443955    0.618331     0.007504
AU3013   AU        0.778016    0.457915    0.567331     0.007504
AU3014   AU        0.801515    0.429175    0.598733     0.007504
AU3015   AU        0.788028    0.480256    0.606036     0.007504
NI3016   NI        0.842892    0.405922    0.573630     0.004307
NI3017   NI        0.830874    0.491383    0.597243     0.004307
NI3018   NI        0.083339    0.505497    0.610443     0.004307
NI3019   NI        0.055731    0.562502    0.577425     0.004307
AU3020   AU        0.112217    0.512025    0.569320     0.007504
AU3021   AU        0.096297    0.552408    0.599156     0.007504
AU3022   AU        0.125849    0.515463    0.616175     0.007504
AU3023   AU        0.128134    0.557988    0.561178     0.007504
AU3024   AU        0.164448    0.525278    0.578392     0.007504
AU3025   AU        0.156330    0.556157    0.615571     0.007504
AU3026   AU        0.197921    0.525651    0.614463     0.007504
NI3027   NI        0.223068    0.575281    0.581939     0.004307
NI3028   NI        0.244567    0.518925    0.592454     0.004307
AU3029   AU        0.235657    0.554334    0.627839     0.007504
NI3030   NI        0.269073    0.515448    0.627582     0.004307
AU3031   AU        0.272664    0.562478    0.593257     0.007504
NI3032   NI        0.312024    0.500194    0.567644     0.004307
NI3033   NI        0.305936    0.570918    0.629927     0.004307
NI3034   NI        0.318559    0.541385    0.601146     0.004307
NI3035   NI        0.345955    0.583207    0.575236     0.004307
NI3036   NI        0.349361    0.497347    0.610614     0.004307
NI3037   NI        0.378259    0.552906    0.604387     0.004307
NI3038   NI        0.391012    0.506515    0.629433     0.004307
NI3039   NI        0.425183    0.560261    0.588195     0.004307
NI3040   NI        0.450739    0.493213    0.583043     0.004307
NI3041   NI        0.459782    0.532692    0.597967     0.004307
NI3042   NI        0.503671    0.527398    0.592924     0.004307
NI3043   NI        0.476473    0.571419    0.587595     0.004307
NI3044   NI        0.541003    0.528776    0.558704     0.004307
NI3045   NI        0.504774    0.563945    0.626573     0.004307
NI3046   NI        0.556922    0.523488    0.615494     0.004307
NI3047   NI        0.568957    0.567322    0.568885     0.004307
NI3048   NI        0.583349    0.503538    0.574418     0.004307
NI3049   NI        0.583771    0.560104    0.629760     0.004307
NI3050   NI        0.626034    0.481837    0.604369     0.004307
NI3051   NI        0.616011    0.537733    0.591602     0.004307
NI3052   NI        0.658544    0.512370    0.575208     0.004307
AU3053   AU        0.659803    0.547843    0.611857     0.007504
AU3054   AU        0.702276    0.524129    0.622393     0.007504
AU3055   AU        0.699496    0.553087    0.581248     0.007504
AU3056   AU        0.736313    0.520057    0.584665     0.007504
AU3057   AU        0.734632    0.558274    0.619692     0.007504
AU3058   AU        0.773019    0.525910    0.619928     0.007504
AU3059   AU        0.769444    0.558087    0.583256     0.007504
AU3060   AU        0.807500    0.524501    0.581512     0.007504
NI3061   NI        0.818836    0.548331    0.624700     0.004307
NI3062   NI        0.854412    0.484624    0.658218     0.004307
NI3063   NI        0.846556    0.552533    0.589843     0.004307
NI3064   NI        0.080562    0.599940    0.594271     0.004307
NI3065   NI        0.094209    0.587056    0.633557     0.004307
AU3066   AU        0.127308    0.593106    0.598545     0.007504
NI3067   NI        0.120519    0.637562    0.583509     0.004307
AU3068   AU        0.171210    0.584936    0.573420     0.007504
AU3069   AU        0.166269    0.624842    0.602212     0.007504
AU3070   AU        0.195266    0.588620    0.620729     0.007504
AU3071   AU        0.208725    0.618178    0.577972     0.007504
NI3072   NI        0.254597    0.602578    0.569725     0.004307
AU3073   AU        0.226336    0.630561    0.624367     0.007504
AU3074   AU        0.265722    0.597918    0.630059     0.007504
NI3075   NI        0.265826    0.637490    0.593181     0.004307
NI3076   NI        0.307376    0.571708    0.566225     0.004307
AU3077   AU        0.306434    0.601800    0.600098     0.007504
NI3078   NI        0.349896    0.596967    0.615619     0.004307
NI3079   NI        0.312687    0.630207    0.563590     0.004307
NI3080   NI        0.386863    0.577820    0.571166     0.004307
NI3081   NI        0.349634    0.631517    0.588780     0.004307
NI3082   NI        0.427429    0.601141    0.606506     0.004307
NI3083   NI        0.393741    0.620488    0.575247     0.004307
NI3084   NI        0.443578    0.593436    0.568341     0.004307
NI3085   NI        0.430918    0.634780    0.634864     0.004307
NI3086   NI        0.465011    0.594467    0.627233     0.004307
NI3087   NI        0.465082    0.633401    0.593087     0.004307
NI3088   NI        0.516081    0.571619    0.570786     0.004307
NI3089   NI        0.505045    0.610224    0.607605     0.004307
NI3090   NI        0.547412    0.586780    0.613305     0.004307
NI3091   NI        0.541381    0.611805    0.579768     0.004307
NI3092   NI        0.607119    0.582421    0.593897     0.004307
NI3093   NI        0.590668    0.629191    0.611959     0.004307
NI3094   NI        0.626510    0.603354    0.623908     0.004307
AU3095   AU        0.627952    0.628704    0.583207     0.007504
AU3096   AU        0.662992    0.591996    0.585840     0.007504
AU3097   AU        0.662475    0.625414    0.619592     0.007504
AU3098   AU        0.693623    0.584696    0.616180     0.007504
AU3099   AU        0.699502    0.621391    0.584026     0.007504
AU3100   AU        0.730721    0.589054    0.581148     0.007504
AU3101   AU        0.738379    0.609215    0.623688     0.007504
AU3102   AU        0.778753    0.578021    0.631443     0.007504
AU3103   AU        0.777007    0.610308    0.589936     0.007504
NI3104   NI        0.809943    0.575190    0.591309     0.004307
NI3105   NI        0.812140    0.619377    0.626389     0.004307
NI3106   NI        0.143354    0.656087    0.626288     0.004307
NI3107   NI        0.126319    0.673664    0.563820     0.004307
AU3108   AU        0.182815    0.662097    0.576613     0.007504
NI3109   NI        0.128820    0.693377    0.605957     0.004307
AU3110   AU        0.191582    0.668108    0.619728     0.007504
AU3111   AU        0.188388    0.708520    0.587206     0.007504
AU3112   AU        0.225153    0.670041    0.592209     0.007504
AU3113   AU        0.221191    0.708797    0.624780     0.007504
AU3114   AU        0.263403    0.661136    0.627877     0.007504
AU3115   AU        0.269048    0.691499    0.594342     0.007504
AU3116   AU        0.309189    0.655865    0.603486     0.007504
AU3117   AU        0.299584    0.696632    0.631617     0.007504
NI3118   NI        0.353200    0.680667    0.615455     0.004307
AU3119   AU        0.320070    0.698781    0.592980     0.007504
NI3120   NI        0.368184    0.691309    0.576231     0.004307
NI3121   NI        0.392220    0.705705    0.618255     0.004307
NI3122   NI        0.389871    0.650352    0.618095     0.004307
AU3123   AU        0.420385    0.701183    0.583997     0.007504
NI3124   NI        0.423739    0.648736    0.593376     0.004307
AU3125   AU        0.445567    0.716345    0.624532     0.007504
NI3126   NI        0.470413    0.667468    0.625391     0.004307
NI3127   NI        0.468714    0.689979    0.581565     0.004307
NI3128   NI        0.507900    0.645368    0.587905     0.004307
AU3129   AU        0.515563    0.690645    0.613184     0.007504
NI3130   NI        0.540049    0.649146    0.623493     0.004307
AU3131   AU        0.579085    0.676233    0.605188     0.007504
NI3132   NI        0.579098    0.648566    0.573478     0.004307
AU3133   AU        0.606792    0.700053    0.631366     0.007504
AU3134   AU        0.627859    0.661136    0.619449     0.007504
AU3135   AU        0.617765    0.699680    0.552374     0.007504
AU3136   AU        0.668137    0.656938    0.589881     0.007504
AU3137   AU        0.643074    0.698599    0.594783     0.007504
AU3138   AU        0.706029    0.647260    0.624185     0.007504
AU3139   AU        0.706340    0.684835    0.590996     0.007504
AU3140   AU        0.738153    0.642320    0.585288     0.007504
NI3141   NI        0.771683    0.669000    0.587528     0.004307
NI3142   NI        0.767443    0.641071    0.627766     0.004307
NI3143   NI        0.790743    0.704461    0.569180     0.004307
NI3144   NI        0.141816    0.717925    0.562203     0.004307
NI3145   NI        0.172497    0.713378    0.634896     0.004307
NI3146   NI        0.166972    0.751654    0.599765     0.004307
AU3147   AU        0.236574    0.718496    0.580564     0.007504
NI3148   NI        0.229188    0.756139    0.610294     0.004307
AU3149   AU        0.267598    0.731742    0.616493     0.007504
NI3150   NI        0.260324    0.774604    0.574088     0.004307
AU3151   AU        0.285540    0.730839    0.576611     0.007504
AU3152   AU        0.310249    0.755096    0.612696     0.007504
AU3153   AU        0.335416    0.721497    0.633305     0.007504
AU3154   AU        0.360716    0.761592    0.558729     0.007504
NI3155   NI        0.392164    0.734832    0.574348     0.004307
AU3156   AU        0.361934    0.748415    0.609923     0.007504
AU3157   AU        0.415227    0.750883    0.606202     0.007504
AU3158   AU        0.411777    0.772116    0.556423     0.007504
AU3159   AU        0.457045    0.731887    0.579072     0.007504
AU3160   AU        0.461481    0.764269    0.616934     0.007504
AU3161   AU        0.487783    0.728667    0.613441     0.007504
AU3162   AU        0.491782    0.764116    0.576219     0.007504
NI3163   NI        0.519263    0.722880    0.574064     0.004307
AU3164   AU        0.525876    0.757708    0.611946     0.007504
AU3165   AU        0.556903    0.718461    0.607602     0.007504
AU3166   AU        0.569119    0.765173    0.587177     0.007504
AU3167   AU        0.574089    0.701622    0.562116     0.007504
NI3168   NI        0.585035    0.749354    0.633830     0.004307
NI3169   NI        0.639979    0.735480    0.620659     0.004307
AU3170   AU        0.606827    0.729207    0.589825     0.007504
AU3171   AU        0.649442    0.728904    0.559516     0.007504
NI3172   NI        0.648316    0.774010    0.577229     0.004307
NI3173   NI        0.711922    0.760323    0.592417     0.004307
NI3174   NI        0.690651    0.764753    0.557308     0.004307
NI3175   NI        0.741434    0.750246    0.563424     0.004307
NI3176   NI        0.273771    0.781244    0.626718     0.004307
NI3177   NI        0.314191    0.799811    0.624102     0.004307
NI3178   NI        0.383127    0.799117    0.668739     0.004307
NI3179   NI        0.344475    0.850577    0.553605     0.004307
AU3180   AU        0.387236    0.789957    0.595916     0.007504
NI3181   NI        0.340619    0.829025    0.601717     0.004307
NI3182   NI        0.428293    0.822502    0.606809     0.004307
NI3183   NI        0.386777    0.842278    0.579167     0.004307
AU3184   AU        0.462369    0.804855    0.576858     0.007504
NI3185   NI        0.479128    0.844313    0.605255     0.004307
NI3186   NI        0.503216    0.801930    0.600088     0.004307
NI3187   NI        0.481852    0.850237    0.554443     0.004307
NI3188   NI        0.541058    0.831967    0.542885     0.004307
NI3189   NI        0.514418    0.839831    0.580468     0.004307
NI3190   NI        0.559233    0.794162    0.626326     0.004307
NI3191   NI        0.560171    0.820054    0.590446     0.004307
NI3192   NI        0.602413    0.790936    0.607233     0.004307
NI3193   NI        0.595246    0.786360    0.650152     0.004307
NI3194   NI        0.210106    0.153848    0.689555     0.004307
NI3195   NI        0.257348    0.126720    0.663629     0.004307
AU3196   AU        0.328682    0.128016    0.663178     0.007504
NI3197   NI        0.430967    0.065743    0.664304     0.004307
NI3198   NI        0.379547    0.124623    0.688456     0.004307
NI3199   NI        0.394129    0.084940    0.678633     0.004307
AU3200   AU        0.406613    0.134598    0.654955     0.007504
AU3201   AU        0.463023    0.090236    0.629022     0.007504
AU3202   AU        0.430092    0.112105    0.690310     0.007504
NI3203   NI        0.498004    0.068914    0.658681     0.004307
AU3204   AU        0.477989    0.109199    0.671995     0.007504
NI3205   NI        0.536916    0.100462    0.675297     0.004307
NI3206   NI        0.527834    0.130146    0.706956     0.004307
NI3207   NI        0.561065    0.135854    0.660308     0.004307
NI3208   NI        0.588449    0.128087    0.699739     0.004307
NI3209   NI        0.650675    0.112234    0.604641     0.004307
NI3210   NI        0.197863    0.182737    0.631071     0.004307
NI3211   NI        0.223253    0.152252    0.647418     0.004307
NI3212   NI        0.216519    0.193582    0.674916     0.004307
NI3213   NI        0.254810    0.163818    0.690140     0.004307
AU3214   AU        0.258132    0.196097    0.650866     0.007504
AU3215   AU        0.291322    0.158921    0.655189     0.007504
AU3216   AU        0.291559    0.194067    0.688616     0.007504
AU3217   AU        0.329625    0.163515    0.689070     0.007504
AU3218   AU        0.329114    0.192998    0.650732     0.007504
AU3219   AU        0.368123    0.160688    0.657758     0.007504
AU3220   AU        0.368122    0.190715    0.688599     0.007504
AU3221   AU        0.405001    0.157626    0.695703     0.007504
AU3222   AU        0.405273    0.190611    0.654401     0.007504
AU3223   AU        0.446617    0.150685    0.673165     0.007504
AU3224   AU        0.443507    0.191708    0.687057     0.007504
NI3225   NI        0.486306    0.169882    0.664430     0.004307
AU3226   AU        0.487150    0.207550    0.640862     0.007504
NI3227   NI        0.522240    0.148208    0.664883     0.004307
AU3228   AU        0.521467    0.200867    0.681451     0.007504
AU3229   AU        0.560631    0.169031    0.692742     0.007504
AU3230   AU        0.555544    0.193185    0.646443     0.007504
AU3231   AU        0.594539    0.162398    0.661289     0.007504
AU3232   AU        0.595219    0.201916    0.678389     0.007504
NI3233   NI        0.632293    0.131658    0.670933     0.004307
AU3234   AU        0.616969    0.200725    0.638497     0.007504
NI3235   NI        0.671979    0.138081    0.627164     0.004307
AU3236   AU        0.640867    0.177486    0.665111     0.007504
NI3237   NI        0.689590    0.176655    0.652872     0.004307
NI3238   NI        0.107970    0.275217    0.660546     0.004307
NI3239   NI        0.141406    0.225126    0.653079     0.004307
NI3240   NI        0.162961    0.268720    0.697489     0.004307
NI3241   NI        0.178444    0.228483    0.678540     0.004307
AU3242   AU        0.184531    0.270966    0.652758     0.007504
AU3243   AU        0.218802    0.231928    0.651077     0.007504
AU3244   AU        0.213386    0.259612    0.688766     0.007504
AU3245   AU        0.254188    0.226655    0.685925     0.007504
AU3246   AU        0.255848    0.272605    0.666319     0.007504
AU3247   AU        0.292444    0.231437    0.655253     0.007504
AU3248   AU        0.297160    0.259618    0.690794     0.007504
AU3249   AU        0.330136    0.222352    0.688597     0.007504
AU3250   AU        0.333030    0.262095    0.655687     0.007504
AU3251   AU        0.367225    0.226582    0.653972     0.007504
AU3252   AU        0.373275    0.261936    0.686449     0.007504
AU3253   AU        0.406426    0.224310    0.689557     0.007504
NI3254   NI        0.408088    0.263576    0.654615     0.004307
AU3255   AU        0.443006    0.228408    0.653989     0.007504
AU3256   AU        0.442592    0.264646    0.692257     0.007504
AU3257   AU        0.480079    0.226667    0.690304     0.007504
AU3258   AU        0.480383    0.259827    0.653372     0.007504
AU3259   AU        0.524685    0.236452    0.643795     0.007504
AU3260   AU        0.517963    0.262172    0.688721     0.007504
AU3261   AU        0.556818    0.232186    0.680802     0.007504
NI3262   NI        0.562564    0.271463    0.640120     0.004307
AU3263   AU        0.586754    0.233807    0.641863     0.007504
AU3264   AU        0.597488    0.262835    0.682511     0.007504
AU3265   AU        0.632530    0.223827    0.683205     0.007504
AU3266   AU        0.631008    0.263641    0.647712     0.007504
AU3267   AU        0.662708    0.221351    0.652447     0.007504
AU3268   AU        0.668124    0.260423    0.683707     0.007504
NI3269   NI        0.736376    0.253506    0.674742     0.004307
AU3270   AU        0.701688    0.259337    0.643929     0.007504
NI3271   NI        0.708391    0.221960    0.657773     0.004307
NI3272   NI        0.750461    0.281895    0.704329     0.004307
NI3273   NI        0.771117    0.246903    0.648568     0.004307
NI3274   NI        0.132909    0.302725    0.690738     0.004307
NI3275   NI        0.117155    0.335330    0.652019     0.004307
AU3276   AU        0.167673    0.320198    0.662989     0.007504
NI3277   NI        0.149369    0.339744    0.698754     0.004307
AU3278   AU        0.191768    0.304306    0.705041     0.007504
AU3279   AU        0.201497    0.352831    0.655407     0.007504
AU3280   AU        0.217034    0.305071    0.660784     0.007504
AU3281   AU        0.224022    0.340418    0.696036     0.007504
AU3282   AU        0.256620    0.325181    0.670146     0.007504
NI3283   NI        0.292386    0.351209    0.655808     0.004307
AU3284   AU        0.294776    0.297847    0.660320     0.007504
AU3285   AU        0.303417    0.335380    0.696482     0.007504
AU3286   AU        0.334268    0.295815    0.692385     0.007504
NI3287   NI        0.364784    0.341513    0.635010     0.004307
NI3288   NI        0.384417    0.307215    0.660736     0.004307
NI3289   NI        0.353244    0.342453    0.683592     0.004307
NI3290   NI        0.412141    0.298915    0.697018     0.004307
AU3291   AU        0.409414    0.349283    0.638073     0.007504
NI3292   NI        0.439436    0.300289    0.655524     0.004307
NI3293   NI        0.441357    0.337155    0.672033     0.004307
AU3294   AU        0.478304    0.297995    0.687165     0.007504
NI3295   NI        0.478223    0.327500    0.648503     0.004307
NI3296   NI        0.517986    0.290653    0.657790     0.004307
AU3297   AU        0.515627    0.332818    0.683589     0.007504
AU3298   AU        0.556963    0.294794    0.681253     0.007504
NI3299   NI        0.566125    0.349031    0.631219     0.004307
AU3300   AU        0.602621    0.301383    0.642568     0.007504
AU3301   AU        0.595976    0.331626    0.680493     0.007504
AU3302   AU        0.633514    0.299408    0.685928     0.007504
AU3303   AU        0.636726    0.339318    0.651337     0.007504
AU3304   AU        0.668553    0.297835    0.649244     0.007504
AU3305   AU        0.672538    0.333125    0.690635     0.007504
AU3306   AU        0.707197    0.292997    0.677707     0.007504
AU3307   AU        0.702090    0.335274    0.652470     0.007504
AU3308   AU        0.742168    0.317653    0.651079     0.007504
AU3309   AU        0.736316    0.334730    0.689746     0.007504
NI3310   NI        0.781933    0.315393    0.687584     0.004307
NI3311   NI        0.769028    0.287639    0.660090     0.004307
NI3312   NI        0.105815    0.350462    0.688293     0.004307
NI3313   NI        0.099450    0.425966    0.705970     0.004307
NI3314   NI        0.135798    0.385197    0.696073     0.004307
AU3315   AU        0.109795    0.387863    0.650848     0.007504
AU3316   AU        0.153068    0.369454    0.659036     0.007504
AU3317   AU        0.163685    0.415762    0.684279     0.007504
AU3318   AU        0.184468    0.372357    0.697085     0.007504
AU3319   AU        0.193513    0.402043    0.656017     0.007504
AU3320   AU        0.248649    0.370803    0.655491     0.007504
AU3321   AU        0.229962    0.396499    0.692135     0.007504
AU3322   AU        0.261298    0.367276    0.701885     0.007504
NI3323   NI        0.268696    0.411000    0.656434     0.004307
NI3324   NI        0.333577    0.331067    0.603576     0.004307
AU3325   AU        0.295449    0.407736    0.704587     0.007504
NI3326   NI        0.336098    0.371631    0.706474     0.004307
NI3327   NI        0.311326    0.394049    0.662123     0.004307
NI3328   NI        0.384194    0.380822    0.664239     0.004307
NI3329   NI        0.365982    0.401253    0.696109     0.004307
NI3330   NI        0.425700    0.382906    0.682589     0.004307
NI3331   NI        0.443480    0.410344    0.638759     0.004307
NI3332   NI        0.453384    0.364611    0.628836     0.004307
NI3333   NI        0.455709    0.417076    0.690408     0.004307
NI3334   NI        0.478497    0.373444    0.672170     0.004307
NI3335   NI        0.478710    0.401525    0.607767     0.004307
NI3336   NI        0.520586    0.362601    0.640014     0.004307
NI3337   NI        0.504153    0.410426    0.683386     0.004307
NI3338   NI        0.555318    0.357808    0.673303     0.004307
NI3339   NI        0.558647    0.393878    0.625573     0.004307
NI3340   NI        0.603294    0.372015    0.650270     0.004307
NI3341   NI        0.578759    0.404157    0.671462     0.004307
AU3342   AU        0.627328    0.378796    0.694052     0.007504
NI3343   NI        0.626468    0.423233    0.665750     0.004307
AU3344   AU        0.667532    0.372161    0.662292     0.007504
AU3345   AU        0.666759    0.411402    0.694732     0.007504
AU3346   AU        0.702994    0.371793    0.692421     0.007504
AU3347   AU        0.701946    0.410955    0.661279     0.007504
AU3348   AU        0.735825    0.371666    0.656381     0.007504
AU3349   AU        0.739146    0.408791    0.694689     0.007504
NI3350   NI        0.779565    0.382742    0.690858     0.004307
AU3351   AU        0.771254    0.405827    0.654766     0.007504
NI3352   NI        0.848918    0.366379    0.647682     0.004307
NI3353   NI        0.773268    0.349722    0.652837     0.004307
NI3354   NI        0.074641    0.419810    0.637354     0.004307
NI3355   NI        0.095983    0.508628    0.654181     0.004307
NI3356   NI        0.118936    0.435763    0.669111     0.004307
AU3357   AU        0.132140    0.475592    0.646241     0.007504
AU3358   AU        0.163673    0.438802    0.642022     0.007504
AU3359   AU        0.163504    0.467470    0.683930     0.007504
AU3360   AU        0.205827    0.438526    0.692289     0.007504
AU3361   AU        0.194872    0.479553    0.649313     0.007504
AU3362   AU        0.228676    0.439225    0.654849     0.007504
AU3363   AU        0.225823    0.476426    0.690223     0.007504
AU3364   AU        0.258616    0.437295    0.693138     0.007504
AU3365   AU        0.266518    0.466976    0.651847     0.007504
NI3366   NI        0.304117    0.435944    0.661042     0.004307
AU3367   AU        0.298900    0.469372    0.690534     0.007504
NI3368   NI        0.334916    0.436721    0.707475     0.004307
NI3369   NI        0.353835    0.509525    0.653086     0.004307
NI3370   NI        0.347331    0.423247    0.646367     0.004307
NI3371   NI        0.362336    0.478362    0.691751     0.004307
NI3372   NI        0.399491    0.421328    0.665949     0.004307
NI3373   NI        0.396606    0.480101    0.666956     0.004307
NI3374   NI        0.424198    0.450605    0.644727     0.004307
NI3375   NI        0.440192    0.476449    0.678209     0.004307
NI3376   NI        0.481162    0.456126    0.715046     0.004307
NI3377   NI        0.483811    0.470159    0.676916     0.004307
NI3378   NI        0.504293    0.431865    0.641493     0.004307
AU3379   AU        0.518431    0.499038    0.686033     0.007504
AU3380   AU        0.555554    0.450054    0.684218     0.007504
AU3381   AU        0.555920    0.490641    0.655288     0.007504
NI3382   NI        0.592139    0.453921    0.650809     0.004307
AU3383   AU        0.593113    0.482351    0.689284     0.007504
NI3384   NI        0.632475    0.456734    0.689462     0.004307
NI3385   NI        0.642869    0.488534    0.648060     0.004307
AU3386   AU        0.669898    0.450711    0.663857     0.007504
AU3387   AU        0.669313    0.486950    0.691775     0.007504
AU3388   AU        0.703762    0.447224    0.692187     0.007504
AU3389   AU        0.705020    0.487160    0.661317     0.007504
AU3390   AU        0.738437    0.447059    0.659577     0.007504
AU3391   AU        0.741020    0.484233    0.691399     0.007504
NI3392   NI        0.774362    0.441582    0.693523     0.004307
AU3393   AU        0.770894    0.482491    0.653046     0.007504
NI3394   NI        0.798680    0.444555    0.640416     0.004307
NI3395   NI        0.807905    0.463214    0.680442     0.004307
NI3396   NI        0.112493    0.555912    0.697842     0.004307
AU3397   AU        0.129143    0.507650    0.684615     0.007504
AU3398   AU        0.122155    0.551033    0.650378     0.007504
AU3399   AU        0.158834    0.516254    0.646694     0.007504
AU3400   AU        0.155399    0.546320    0.687421     0.007504
AU3401   AU        0.192312    0.514157    0.687731     0.007504
AU3402   AU        0.189673    0.554438    0.653181     0.007504
AU3403   AU        0.224178    0.516161    0.656914     0.007504
AU3404   AU        0.222610    0.554537    0.693523     0.007504
AU3405   AU        0.268592    0.508882    0.682508     0.007504
NI3406   NI        0.261654    0.552868    0.662220     0.004307
NI3407   NI        0.315736    0.522615    0.641634     0.004307
NI3408   NI        0.308436    0.552338    0.675339     0.004307
AU3409   AU        0.321403    0.510835    0.685369     0.007504
NI3410   NI        0.345238    0.553366    0.631713     0.004307
NI3411   NI        0.391910    0.545145    0.650940     0.004307
NI3412   NI        0.361765    0.548679    0.681996     0.004307
NI3413   NI        0.400821    0.499734    0.704338     0.004307
NI3414   NI        0.422768    0.535367    0.623475     0.004307
NI3415   NI        0.422541    0.513328    0.661714     0.004307
NI3416   NI        0.436271    0.552410    0.684061     0.004307
NI3417   NI        0.473412    0.513083    0.672326     0.004307
NI3418   NI        0.464085    0.551653    0.639613     0.004307
NI3419   NI        0.520679    0.523797    0.644854     0.004307
AU3420   AU        0.504574    0.546729    0.674582     0.007504
AU3421   AU        0.554432    0.529354    0.684636     0.007504
NI3422   NI        0.546806    0.560946    0.649288     0.004307
NI3423   NI        0.592553    0.516721    0.649718     0.004307
AU3424   AU        0.594753    0.559575    0.689398     0.007504
AU3425   AU        0.627400    0.517847    0.687526     0.007504
NI3426   NI        0.621059    0.552821    0.651189     0.004307
NI3427   NI        0.671903    0.519804    0.659538     0.004307
AU3428   AU        0.661774    0.550880    0.688252     0.007504
AU3429   AU        0.706843    0.523748    0.697838     0.007504
AU3430   AU        0.702297    0.556297    0.658805     0.007504
AU3431   AU        0.741186    0.525461    0.658670     0.007504
NI3432   NI        0.745105    0.544135    0.703749     0.004307
NI3433   NI        0.777722    0.516545    0.698441     0.004307
NI3434   NI        0.778458    0.547300    0.668091     0.004307
NI3435   NI        0.813221    0.515048    0.667790     0.004307
NI3436   NI        0.143227    0.589004    0.702091     0.004307
NI3437   NI        0.111747    0.590263    0.673915     0.004307
AU3438   AU        0.149789    0.593510    0.644221     0.007504
NI3439   NI        0.178192    0.643783    0.692603     0.004307
AU3440   AU        0.185312    0.590961    0.685780     0.007504
AU3441   AU        0.187783    0.628670    0.648985     0.007504
AU3442   AU        0.224158    0.593207    0.657714     0.007504
AU3443   AU        0.219624    0.631049    0.686982     0.007504
AU3444   AU        0.260096    0.588467    0.692409     0.007504
AU3445   AU        0.262588    0.628428    0.663326     0.007504
NI3446   NI        0.310114    0.621981    0.650872     0.004307
AU3447   AU        0.297892    0.622998    0.699030     0.007504
AU3448   AU        0.334665    0.593580    0.687225     0.007504
NI3449   NI        0.352533    0.643134    0.634529     0.004307
NI3450   NI        0.369026    0.587150    0.655783     0.004307
AU3451   AU        0.375602    0.617295    0.702363     0.007504
NI3452   NI        0.396180    0.576630    0.688749     0.004307
NI3453   NI        0.388422    0.628313    0.655928     0.004307
NI3454   NI        0.421660    0.585609    0.651425     0.004307
AU3455   AU        0.428368    0.620395    0.685706     0.007504
AU3456   AU        0.466415    0.584741    0.681630     0.007504
AU3457   AU        0.474060    0.631186    0.663974     0.007504
NI3458   NI        0.509667    0.595361    0.659689     0.004307
AU3459   AU        0.514493    0.630011    0.694778     0.007504
AU3460   AU        0.550068    0.594338    0.684634     0.007504
NI3461   NI        0.546095    0.630371    0.659902     0.004307
NI3462   NI        0.588171    0.604009    0.645811     0.004307
AU3463   AU        0.590925    0.627243    0.690427     0.007504
AU3464   AU        0.627500    0.594220    0.679119     0.007504
AU3465   AU        0.626579    0.633644    0.654664     0.007504
AU3466   AU        0.656776    0.579497    0.648382     0.007504
AU3467   AU        0.665797    0.620195    0.681053     0.007504
AU3468   AU        0.702072    0.581076    0.697592     0.007504
AU3469   AU        0.699066    0.604755    0.653205     0.007504
AU3470   AU        0.741233    0.579978    0.666055     0.007504
NI3471   NI        0.708095    0.637573    0.700639     0.004307
NI3472   NI        0.744882    0.606828    0.699677     0.004307
NI3473   NI        0.813993    0.585110    0.660439     0.004307
NI3474   NI        0.142433    0.631878    0.671814     0.004307
NI3475   NI        0.214399    0.671755    0.715169     0.004307
NI3476   NI        0.168439    0.676278    0.655280     0.004307
AU3477   AU        0.220943    0.667538    0.653039     0.007504
NI3478   NI        0.220286    0.707453    0.688527     0.004307
AU3479   AU        0.258304    0.664720    0.689974     0.007504
AU3480   AU        0.258248    0.703242    0.657864     0.007504
AU3481   AU        0.296477    0.660531    0.665692     0.007504
AU3482   AU        0.291598    0.702209    0.691903     0.007504
AU3483   AU        0.344452    0.644631    0.682376     0.007504
AU3484   AU        0.334159    0.691859    0.668505     0.007504
NI3485   NI        0.374187    0.673637    0.655330     0.004307
AU3486   AU        0.368761    0.701845    0.695425     0.007504
AU3487   AU        0.395269    0.661863    0.691643     0.007504
AU3488   AU        0.406359    0.703520    0.669915     0.007504
AU3489   AU        0.442038    0.669443    0.666229     0.007504
AU3490   AU        0.447859    0.707838    0.699556     0.007504
AU3491   AU        0.483246    0.669134    0.700099     0.007504
AU3492   AU        0.482896    0.705116    0.660616     0.007504
AU3493   AU        0.513086    0.667216    0.656647     0.007504
AU3494   AU        0.522839    0.701859    0.690963     0.007504
AU3495   AU        0.555824    0.662482    0.689229     0.007504
AU3496   AU        0.555850    0.689788    0.646222     0.007504
AU3497   AU        0.587975    0.653870    0.647900     0.007504
AU3498   AU        0.593769    0.690083    0.679207     0.007504
AU3499   AU        0.632446    0.633161    0.716796     0.007504
AU3500   AU        0.639811    0.679957    0.665831     0.007504
AU3501   AU        0.674152    0.681959    0.631206     0.007504
NI3502   NI        0.679396    0.719565    0.651187     0.004307
NI3503   NI        0.684841    0.655193    0.667947     0.004307
NI3504   NI        0.738087    0.681096    0.623566     0.004307
NI3505   NI        0.732954    0.628656    0.663943     0.004307
NI3506   NI        0.244288    0.745308    0.652914     0.004307
NI3507   NI        0.263806    0.738697    0.700923     0.004307
NI3508   NI        0.265521    0.781760    0.671248     0.004307
AU3509   AU        0.294923    0.738275    0.658473     0.007504
NI3510   NI        0.306037    0.782562    0.681429     0.004307
AU3511   AU        0.329989    0.733996    0.693106     0.007504
AU3512   AU        0.340696    0.761936    0.653360     0.007504
AU3513   AU        0.392964    0.748357    0.651958     0.007504
NI3514   NI        0.369663    0.761199    0.691377     0.004307
AU3515   AU        0.408618    0.738007    0.699050     0.007504
AU3516   AU        0.422015    0.782761    0.636686     0.007504
AU3517   AU        0.445442    0.742708    0.664929     0.007504
NI3518   NI        0.433507    0.777779    0.684849     0.004307
AU3519   AU        0.484427    0.739360    0.700255     0.007504
AU3520   AU        0.494931    0.755895    0.655952     0.007504
AU3521   AU        0.528476    0.723819    0.646629     0.007504
NI3522   NI        0.507761    0.782439    0.701998     0.004307
AU3523   AU        0.565429    0.730046    0.680222     0.007504
NI3524   NI        0.542612    0.771222    0.662981     0.004307
NI3525   NI        0.625268    0.732974    0.663414     0.004307
NI3526   NI        0.526429    0.811242    0.673860     0.004307
NI3527   NI        0.659505    0.722172    0.695396     0.004307
NI3528   NI        0.655887    0.778346    0.643866     0.004307
NI3529   NI        0.683935    0.723721    0.597548     0.004307
NI3530   NI        0.377833    0.813439    0.628852     0.004307
NI3531   NI        0.447689    0.830807    0.641954     0.004307
NI3532   NI        0.489155    0.799643    0.640771     0.004307
NI3533   NI        0.477643    0.812159    0.682076     0.004307
NI3534   NI        0.525495    0.824237    0.633771     0.004307
NI3535   NI        0.430257    0.115528    0.735202     0.004307
NI3536   NI        0.483425    0.139852    0.707269     0.004307
NI3537   NI        0.253448    0.196802    0.717295     0.004307
NI3538   NI        0.293375    0.135534    0.692509     0.004307
NI3539   NI        0.283410    0.175721    0.737214     0.004307
AU3540   AU        0.331109    0.197542    0.723272     0.007504
NI3541   NI        0.367445    0.161893    0.719685     0.004307
AU3542   AU        0.369571    0.189696    0.753996     0.007504
NI3543   NI        0.332671    0.154510    0.747543     0.004307
AU3544   AU        0.406552    0.193011    0.721573     0.007504
AU3545   AU        0.445333    0.156053    0.721438     0.007504
AU3546   AU        0.442262    0.189793    0.757820     0.007504
NI3547   NI        0.481069    0.165647    0.759755     0.004307
AU3548   AU        0.484026    0.189971    0.722847     0.007504
NI3549   NI        0.527657    0.162208    0.733976     0.004307
NI3550   NI        0.521719    0.200971    0.750796     0.004307
AU3551   AU        0.560895    0.203150    0.718932     0.007504
NI3552   NI        0.570329    0.161901    0.743986     0.004307
NI3553   NI        0.595384    0.199022    0.754470     0.004307
NI3554   NI        0.618328    0.157927    0.703644     0.004307
NI3555   NI        0.210701    0.263239    0.738238     0.004307
NI3556   NI        0.218306    0.224658    0.716790     0.004307
NI3557   NI        0.213540    0.291061    0.775383     0.004307
NI3558   NI        0.250063    0.224018    0.756138     0.004307
AU3559   AU        0.256292    0.259568    0.715299     0.007504
AU3560   AU        0.290160    0.224460    0.720714     0.007504
AU3561   AU        0.291383    0.254761    0.756488     0.007504
NI3562   NI        0.326605    0.219808    0.765432     0.004307
AU3563   AU        0.330219    0.254461    0.728706     0.007504
AU3564   AU        0.369524    0.225421    0.719119     0.007504
AU3565   AU        0.366591    0.256393    0.759969     0.007504
AU3566   AU        0.406511    0.226781    0.756324     0.007504
AU3567   AU        0.405119    0.258775    0.725768     0.007504
AU3568   AU        0.445621    0.224821    0.722313     0.007504
AU3569   AU        0.445441    0.263739    0.753033     0.007504
AU3570   AU        0.481809    0.225166    0.757449     0.007504
AU3571   AU        0.481978    0.262905    0.724600     0.007504
AU3572   AU        0.519923    0.229708    0.720021     0.007504
AU3573   AU        0.522350    0.261519    0.754365     0.007504
AU3574   AU        0.559728    0.230702    0.757016     0.007504
AU3575   AU        0.556635    0.262685    0.719018     0.007504
AU3576   AU        0.595261    0.229496    0.717170     0.007504
AU3577   AU        0.595899    0.261864    0.753150     0.007504
NI3578   NI        0.639185    0.197260    0.725329     0.004307
AU3579   AU        0.633043    0.260369    0.717185     0.007504
NI3580   NI        0.670062    0.167541    0.700707     0.004307
NI3581   NI        0.683771    0.249690    0.738863     0.004307
NI3582   NI        0.675406    0.222874    0.700219     0.004307
NI3583   NI        0.176388    0.295895    0.746690     0.004307
NI3584   NI        0.233413    0.327861    0.809095     0.004307
NI3585   NI        0.182532    0.343433    0.732472     0.004307
AU3586   AU        0.234597    0.296110    0.705367     0.007504
AU3587   AU        0.217835    0.324419    0.744252     0.007504
AU3588   AU        0.252882    0.286606    0.749393     0.007504
AU3589   AU        0.264010    0.327913    0.719925     0.007504
AU3590   AU        0.297500    0.291883    0.722486     0.007504
AU3591   AU        0.304063    0.325461    0.750726     0.007504
AU3592   AU        0.331745    0.289266    0.766058     0.007504
NI3593   NI        0.343311    0.330299    0.733371     0.004307
AU3594   AU        0.366326    0.289234    0.729675     0.007504
AU3595   AU        0.376687    0.345230    0.757447     0.007504
AU3596   AU        0.405657    0.302961    0.749412     0.007504
NI3597   NI        0.424304    0.338276    0.712758     0.004307
AU3598   AU        0.448851    0.302161    0.724116     0.007504
AU3599   AU        0.455110    0.340867    0.755815     0.007504
AU3600   AU        0.484750    0.301002    0.749931     0.007504
AU3601   AU        0.477281    0.340614    0.712822     0.007504
AU3602   AU        0.520945    0.296005    0.715935     0.007504
AU3603   AU        0.518149    0.333153    0.741133     0.007504
AU3604   AU        0.558555    0.300891    0.751595     0.007504
AU3605   AU        0.555675    0.329866    0.712253     0.007504
AU3606   AU        0.595753    0.298193    0.716402     0.007504
AU3607   AU        0.588278    0.340389    0.749340     0.007504
AU3608   AU        0.636906    0.292873    0.745030     0.007504
AU3609   AU        0.626779    0.338077    0.718697     0.007504
AU3610   AU        0.671533    0.295148    0.718765     0.007504
AU3611   AU        0.665261    0.334629    0.748865     0.007504
NI3612   NI        0.740170    0.333051    0.752362     0.004307
AU3613   AU        0.705001    0.335373    0.725878     0.007504
NI3614   NI        0.712549    0.288137    0.727180     0.004307
NI3615   NI        0.145709    0.441722    0.759782     0.004307
NI3616   NI        0.153582    0.402054    0.734273     0.004307
NI3617   NI        0.186974    0.432926    0.768505     0.004307
NI3618   NI        0.181504    0.383740    0.765092     0.004307
AU3619   AU        0.196641    0.410522    0.726395     0.007504
AU3620   AU        0.219641    0.371620    0.733077     0.007504
NI3621   NI        0.221870    0.405776    0.765869     0.004307
AU3622   AU        0.258349    0.379277    0.756132     0.007504
AU3623   AU        0.250283    0.417450    0.732275     0.007504
AU3624   AU        0.297296    0.366977    0.734425     0.007504
AU3625   AU        0.286105    0.415679    0.773585     0.007504
AU3626   AU        0.334483    0.366611    0.758361     0.007504
AU3627   AU        0.324986    0.406621    0.740406     0.007504
AU3628   AU        0.384068    0.353222    0.713116     0.007504
AU3629   AU        0.373703    0.391512    0.741912     0.007504
AU3630   AU        0.416610    0.379122    0.743981     0.007504
NI3631   NI        0.412360    0.414448    0.716546     0.004307
AU3632   AU        0.459532    0.379470    0.717331     0.007504
AU3633   AU        0.439208    0.425323    0.758460     0.007504
AU3634   AU        0.491829    0.374679    0.756761     0.007504
AU3635   AU        0.487264    0.415542    0.729643     0.007504
AU3636   AU        0.512130    0.375178    0.713232     0.007504
AU3637   AU        0.524571    0.410826    0.752573     0.007504
AU3638   AU        0.546404    0.367198    0.748236     0.007504
AU3639   AU        0.548056    0.409056    0.712449     0.007504
AU3640   AU        0.582655    0.373699    0.711759     0.007504
AU3641   AU        0.573884    0.401626    0.753837     0.007504
AU3642   AU        0.620111    0.380129    0.743604     0.007504
AU3643   AU        0.626988    0.421763    0.718976     0.007504
AU3644   AU        0.666676    0.371542    0.724075     0.007504
AU3645   AU        0.661127    0.408891    0.753751     0.007504
NI3646   NI        0.705046    0.375098    0.758874     0.004307
AU3647   AU        0.699788    0.409821    0.724639     0.007504
NI3648   NI        0.742696    0.371706    0.725484     0.004307
NI3649   NI        0.736409    0.405834    0.752054     0.004307
NI3650   NI        0.774294    0.410322    0.731234     0.004307
NI3651   NI        0.116616    0.462757    0.699986     0.004307
AU3652   AU        0.166160    0.448859    0.722673     0.007504
NI3653   NI        0.142819    0.489611    0.728876     0.004307
NI3654   NI        0.207354    0.479850    0.771604     0.004307
AU3655   AU        0.187986    0.498254    0.734514     0.007504
AU3656   AU        0.215127    0.456462    0.736694     0.007504
NI3657   NI        0.241596    0.488969    0.797917     0.004307
AU3658   AU        0.256798    0.454585    0.767677     0.007504
AU3659   AU        0.262284    0.481740    0.725030     0.007504
AU3660   AU        0.292296    0.445401    0.736795     0.007504
AU3661   AU        0.304277    0.479011    0.768053     0.007504
AU3662   AU        0.353428    0.447459    0.753746     0.007504
AU3663   AU        0.329045    0.481177    0.725311     0.007504
NI3664   NI        0.396541    0.452995    0.708926     0.004307
AU3665   AU        0.358135    0.488926    0.765707     0.007504
AU3666   AU        0.396406    0.422525    0.766828     0.007504
AU3667   AU        0.400853    0.465011    0.753005     0.007504
NI3668   NI        0.440996    0.459881    0.718106     0.004307
AU3669   AU        0.441952    0.494384    0.753024     0.007504
AU3670   AU        0.473815    0.459050    0.757833     0.007504
NI3671   NI        0.482722    0.510947    0.722857     0.004307
NI3672   NI        0.520133    0.450282    0.705837     0.004307
AU3673   AU        0.516307    0.486928    0.737323     0.007504
AU3674   AU        0.550859    0.447957    0.747885     0.007504
AU3675   AU        0.555756    0.487403    0.716236     0.007504
AU3676   AU        0.589666    0.442220    0.725825     0.007504
AU3677   AU        0.590776    0.480253    0.752574     0.007504
AU3678   AU        0.628917    0.448668    0.760001     0.007504
AU3679   AU        0.629611    0.482303    0.723456     0.007504
AU3680   AU        0.667148    0.450005    0.725662     0.007504
AU3681   AU        0.667069    0.478490    0.758731     0.007504
AU3682   AU        0.701224    0.444110    0.762558     0.007504
AU3683   AU        0.705050    0.482563    0.727681     0.007504
NI3684   NI        0.739459    0.445736    0.722108     0.004307
NI3685   NI        0.721556    0.483810    0.778332     0.004307
NI3686   NI        0.776871    0.475082    0.718707     0.004307
NI3687   NI        0.175523    0.530100    0.769415     0.004307
NI3688   NI        0.215447    0.527575    0.760083     0.004307
AU3689   AU        0.190104    0.551325    0.724139     0.007504
AU3690   AU        0.233691    0.520419    0.718993     0.007504
NI3691   NI        0.214483    0.568378    0.760715     0.004307
AU3692   AU        0.261419    0.510964    0.759679     0.007504
AU3693   AU        0.267187    0.549122    0.724004     0.007504
AU3694   AU        0.296544    0.510240    0.722680     0.007504
AU3695   AU        0.289582    0.545476    0.762391     0.007504
AU3696   AU        0.327866    0.522797    0.759081     0.007504
AU3697   AU        0.323811    0.549902    0.718757     0.007504
AU3698   AU        0.360006    0.517361    0.722118     0.007504
AU3699   AU        0.370915    0.549238    0.758132     0.007504
AU3700   AU        0.397267    0.516040    0.752966     0.007504
AU3701   AU        0.404490    0.549030    0.718509     0.007504
NI3702   NI        0.439748    0.516061    0.713287     0.004307
AU3703   AU        0.439660    0.546381    0.753259     0.007504
AU3704   AU        0.486767    0.508500    0.768540     0.007504
AU3705   AU        0.473889    0.550221    0.716363     0.007504
AU3706   AU        0.518132    0.535247    0.721025     0.007504
AU3707   AU        0.528596    0.561452    0.763304     0.007504
AU3708   AU        0.557901    0.522632    0.755116     0.007504
AU3709   AU        0.562087    0.562844    0.726020     0.007504
AU3710   AU        0.592255    0.521094    0.720965     0.007504
AU3711   AU        0.597069    0.556013    0.759487     0.007504
AU3712   AU        0.627001    0.512081    0.756405     0.007504
AU3713   AU        0.632823    0.551430    0.723287     0.007504
AU3714   AU        0.668109    0.517257    0.725088     0.007504
NI3715   NI        0.661543    0.547586    0.758589     0.004307
NI3716   NI        0.697687    0.519855    0.760128     0.004307
NI3717   NI        0.700456    0.562837    0.738140     0.004307
NI3718   NI        0.745649    0.501910    0.734536     0.004307
NI3719   NI        0.171983    0.587701    0.734342     0.004307
NI3720   NI        0.186859    0.605495    0.772802     0.004307
NI3721   NI        0.189650    0.634482    0.742984     0.004307
AU3722   AU        0.218584    0.594755    0.722802     0.007504
NI3723   NI        0.257570    0.608284    0.791407     0.004307
AU3724   AU        0.257482    0.586734    0.754392     0.007504
AU3725   AU        0.257710    0.627300    0.722512     0.007504
AU3726   AU        0.296952    0.584139    0.726567     0.007504
AU3727   AU        0.298756    0.619700    0.753891     0.007504
AU3728   AU        0.328617    0.574929    0.761631     0.007504
AU3729   AU        0.334916    0.618921    0.730599     0.007504
AU3730   AU        0.363576    0.575983    0.723204     0.007504
AU3731   AU        0.374799    0.616646    0.748379     0.007504
AU3732   AU        0.406961    0.582783    0.761362     0.007504
AU3733   AU        0.418916    0.629789    0.727464     0.007504
AU3734   AU        0.437660    0.583336    0.721737     0.007504
AU3735   AU        0.446399    0.615767    0.760922     0.007504
AU3736   AU        0.476552    0.581949    0.758257     0.007504
AU3737   AU        0.470409    0.622602    0.716621     0.007504
AU3738   AU        0.505953    0.582093    0.713060     0.007504
AU3739   AU        0.510036    0.620125    0.748180     0.007504
AU3740   AU        0.565844    0.597155    0.760205     0.007504
AU3741   AU        0.555291    0.623142    0.724019     0.007504
AU3742   AU        0.603583    0.593799    0.726206     0.007504
NI3743   NI        0.592391    0.633494    0.789520     0.004307
NI3744   NI        0.637510    0.583222    0.762642     0.004307
NI3745   NI        0.620401    0.628530    0.758612     0.004307
AU3746   AU        0.657049    0.591319    0.719429     0.007504
NI3747   NI        0.679121    0.634794    0.731327     0.004307
NI3748   NI        0.682945    0.596184    0.767262     0.004307
NI3749   NI        0.718826    0.611325    0.733298     0.004307
NI3750   NI        0.748616    0.577085    0.732697     0.004307
NI3751   NI        0.231390    0.653329    0.748566     0.004307
NI3752   NI        0.277379    0.656869    0.766545     0.004307
NI3753   NI        0.253385    0.701166    0.723450     0.004307
AU3754   AU        0.291740    0.665511    0.724945     0.007504
NI3755   NI        0.284206    0.698730    0.757196     0.004307
AU3756   AU        0.324202    0.660663    0.762667     0.007504
AU3757   AU        0.329359    0.698121    0.725754     0.007504
AU3758   AU        0.362300    0.662438    0.729161     0.007504
NI3759   NI        0.366514    0.698587    0.763185     0.004307
AU3760   AU        0.401146    0.657988    0.760618     0.007504
AU3761   AU        0.404841    0.697179    0.725127     0.007504
AU3762   AU        0.440042    0.665178    0.711330     0.007504
AU3763   AU        0.443013    0.694123    0.750906     0.007504
AU3764   AU        0.476331    0.659210    0.750514     0.007504
AU3765   AU        0.486037    0.705430    0.730082     0.007504
AU3766   AU        0.525365    0.666094    0.727654     0.007504
NI3767   NI        0.524539    0.692195    0.762127     0.004307
NI3768   NI        0.548066    0.652374    0.768831     0.004307
AU3769   AU        0.561508    0.702253    0.722825     0.007504
AU3770   AU        0.591955    0.661847    0.725005     0.007504
NI3771   NI        0.603505    0.696800    0.753665     0.004307
NI3772   NI        0.654753    0.669753    0.747373     0.004307
NI3773   NI        0.628923    0.679768    0.713092     0.004307
NI3774   NI        0.671441    0.677846    0.706335     0.004307
NI3775   NI        0.300730    0.736792    0.725423     0.004307
AU3776   AU        0.368255    0.733739    0.728396     0.007504
NI3777   NI        0.408702    0.718523    0.775436     0.004307
NI3778   NI        0.406460    0.774903    0.720403     0.004307
NI3779   NI        0.442246    0.738247    0.740499     0.004307
NI3780   NI        0.489166    0.747865    0.754645     0.004307
NI3781   NI        0.461711    0.783125    0.723736     0.004307
NI3782   NI        0.530593    0.742172    0.728511     0.004307
NI3783   NI        0.607248    0.718794    0.713066     0.004307
NI3784   NI        0.408608    0.228290    0.808878     0.004307
NI3785   NI        0.486396    0.196654    0.789557     0.004307
NI3786   NI        0.323484    0.255104    0.800644     0.004307
NI3787   NI        0.373364    0.263436    0.814113     0.004307
NI3788   NI        0.364970    0.218328    0.789439     0.004307
NI3789   NI        0.373286    0.313436    0.843128     0.004307
AU3790   AU        0.407870    0.269590    0.783441     0.007504
NI3791   NI        0.444950    0.232876    0.786941     0.004307
NI3792   NI        0.429975    0.274789    0.830630     0.004307
AU3793   AU        0.485068    0.265880    0.784785     0.007504
NI3794   NI        0.521140    0.230667    0.795339     0.004307
NI3795   NI        0.525307    0.280637    0.821493     0.004307
AU3796   AU        0.561601    0.270424    0.788750     0.007504
NI3797   NI        0.639683    0.240634    0.765039     0.004307
AU3798   AU        0.262815    0.337592    0.765900     0.007504
NI3799   NI        0.290897    0.290481    0.783997     0.004307
NI3800   NI        0.296681    0.328218    0.803664     0.004307
NI3801   NI        0.330761    0.295232    0.812094     0.004307
AU3802   AU        0.337519    0.332574    0.787366     0.007504
AU3803   AU        0.373903    0.304888    0.788781     0.007504
NI3804   NI        0.373850    0.342191    0.812750     0.004307
NI3805   NI        0.408432    0.305990    0.816663     0.004307
AU3806   AU        0.414895    0.340789    0.783735     0.007504
AU3807   AU        0.450097    0.302417    0.784960     0.007504
AU3808   AU        0.453930    0.341527    0.816180     0.007504
NI3809   NI        0.473006    0.282964    0.828370     0.004307
AU3810   AU        0.494831    0.337984    0.786243     0.007504
AU3811   AU        0.522437    0.297589    0.780304     0.007504
NI3812   NI        0.498285    0.331043    0.838635     0.004307
NI3813   NI        0.560366    0.313549    0.817197     0.004307
AU3814   AU        0.547121    0.340553    0.783554     0.007504
AU3815   AU        0.596490    0.305880    0.781074     0.007504
NI3816   NI        0.605743    0.286250    0.835329     0.004307
NI3817   NI        0.643548    0.308644    0.786309     0.004307
NI3818   NI        0.224022    0.386059    0.813759     0.004307
NI3819   NI        0.220674    0.359865    0.776407     0.004307
NI3820   NI        0.267877    0.365081    0.823243     0.004307
NI3821   NI        0.254849    0.424802    0.811749     0.004307
AU3822   AU        0.298067    0.369199    0.786397     0.007504
NI3823   NI        0.304574    0.383287    0.843102     0.004307
AU3824   AU        0.342714    0.377939    0.808781     0.007504
AU3825   AU        0.344556    0.410817    0.781127     0.007504
AU3826   AU        0.387586    0.383950    0.789369     0.007504
AU3827   AU        0.362612    0.421050    0.825742     0.007504
NI3828   NI        0.410218    0.371195    0.824955     0.004307
AU3829   AU        0.414216    0.420592    0.813863     0.007504
AU3830   AU        0.446279    0.381643    0.786520     0.007504
AU3831   AU        0.446077    0.388557    0.838062     0.007504
AU3832   AU        0.488789    0.379658    0.811989     0.007504
AU3833   AU        0.482903    0.417448    0.781136     0.007504
AU3834   AU        0.535191    0.386043    0.793315     0.007504
AU3835   AU        0.512366    0.429211    0.824940     0.007504
NI3836   NI        0.531246    0.354846    0.828165     0.004307
AU3837   AU        0.550737    0.425809    0.793505     0.007504
AU3838   AU        0.582298    0.373737    0.787686     0.007504
NI3839   NI        0.555611    0.401648    0.839963     0.004307
AU3840   AU        0.626166    0.352591    0.778742     0.007504
AU3841   AU        0.617997    0.406887    0.779610     0.007504
NI3842   NI        0.641671    0.370106    0.816623     0.004307
NI3843   NI        0.689933    0.394442    0.791449     0.004307
NI3844   NI        0.190456    0.409950    0.801711     0.004307
NI3845   NI        0.214952    0.443165    0.800571     0.004307
NI3846   NI        0.260360    0.450260    0.845722     0.004307
AU3847   AU        0.284866    0.460635    0.807446     0.007504
AU3848   AU        0.310184    0.415621    0.812419     0.007504
NI3849   NI        0.312387    0.461084    0.842385     0.004307
NI3850   NI        0.326256    0.425490    0.858348     0.004307
AU3851   AU        0.336825    0.457274    0.797784     0.007504
AU3852   AU        0.383550    0.456464    0.798872     0.007504
NI3853   NI        0.369092    0.482183    0.826863     0.004307
NI3854   NI        0.399788    0.452188    0.844474     0.004307
AU3855   AU        0.402958    0.495035    0.792513     0.007504
AU3856   AU        0.435212    0.457766    0.788204     0.007504
NI3857   NI        0.430142    0.481239    0.828956     0.004307
AU3858   AU        0.462622    0.428778    0.824947     0.007504
AU3859   AU        0.473818    0.475409    0.805918     0.007504
AU3860   AU        0.515206    0.456365    0.781457     0.007504
AU3861   AU        0.519403    0.479903    0.825783     0.007504
NI3862   NI        0.565821    0.457455    0.828659     0.004307
AU3863   AU        0.552930    0.481709    0.787014     0.007504
AU3864   AU        0.588276    0.443655    0.780577     0.007504
NI3865   NI        0.560993    0.504660    0.824635     0.004307
NI3866   NI        0.590913    0.418704    0.820296     0.004307
AU3867   AU        0.626085    0.479897    0.793401     0.007504
NI3868   NI        0.664594    0.438412    0.792140     0.004307
NI3869   NI        0.673595    0.482488    0.808093     0.004307
NI3870   NI        0.214200    0.523535    0.803758     0.004307
NI3871   NI        0.249748    0.536053    0.828613     0.004307
NI3872   NI        0.252058    0.553183    0.786812     0.004307
AU3873   AU        0.287922    0.511870    0.801909     0.007504
NI3874   NI        0.296871    0.550514    0.840282     0.004307
NI3875   NI        0.331262    0.501676    0.827270     0.004307
AU3876   AU        0.324696    0.541634    0.802417     0.007504
AU3877   AU        0.365029    0.519118    0.798994     0.007504
NI3878   NI        0.357288    0.535308    0.843456     0.004307
NI3879   NI        0.398190    0.514902    0.836402     0.004307
AU3880   AU        0.404117    0.546095    0.792659     0.007504
AU3881   AU        0.447759    0.520975    0.796676     0.007504
NI3882   NI        0.425326    0.560135    0.829462     0.004307
AU3883   AU        0.484528    0.514165    0.823041     0.007504
AU3884   AU        0.483807    0.552105    0.787843     0.007504
AU3885   AU        0.525720    0.521390    0.794982     0.007504
NI3886   NI        0.486975    0.561333    0.830036     0.004307
NI3887   NI        0.533036    0.531605    0.843189     0.004307
AU3888   AU        0.563692    0.556522    0.794410     0.007504
AU3889   AU        0.589201    0.515509    0.790301     0.007504
NI3890   NI        0.563139    0.569554    0.841037     0.004307
NI3891   NI        0.595688    0.533322    0.833255     0.004307
NI3892   NI        0.625997    0.548911    0.801552     0.004307
NI3893   NI        0.655921    0.518007    0.789993     0.004307
AU3894   AU        0.294456    0.585803    0.789813     0.007504
NI3895   NI        0.355069    0.614332    0.824596     0.004307
NI3896   NI        0.340478    0.574390    0.829275     0.004307
AU3897   AU        0.338388    0.615126    0.782444     0.007504
AU3898   AU        0.367127    0.574091    0.793420     0.007504
NI3899   NI        0.420038    0.676697    0.814546     0.004307
NI3900   NI        0.397283    0.598372    0.828875     0.004307
AU3901   AU        0.387052    0.617780    0.790593     0.007504
AU3902   AU        0.446342    0.573956    0.795883     0.007504
NI3903   NI        0.438219    0.620724    0.811073     0.004307
NI3904   NI        0.458781    0.598888    0.838985     0.004307
AU3905   AU        0.482257    0.613065    0.790030     0.007504
NI3906   NI        0.524690    0.575404    0.805143     0.004307
NI3907   NI        0.506249    0.657309    0.788077     0.004307
NI3908   NI        0.568897    0.605218    0.810991     0.004307
NI3909   NI        0.531761    0.617750    0.791202     0.004307
NI3910   NI        0.601492    0.587396    0.790830     0.004307
NI3911   NI        0.647184    0.598878    0.803983     0.004307
NI3912   NI        0.361445    0.649810    0.785969     0.004307
NI3913   NI        0.378710    0.670583    0.830008     0.004307
NI3914   NI        0.446739    0.653855    0.782156     0.004307
NI3915   NI        0.478014    0.707332    0.778183     0.004307
NI3916   NI        0.519303    0.587183    0.845569     0.004307
NI3917   NI        0.397216    0.354177    0.869614     0.004307
NI3918   NI        0.493867    0.390765    0.856570     0.004307
NI3919   NI        0.492616    0.441319    0.863859     0.004307
NI3920   NI        0.397952    0.407453    0.854646     0.004307
NI3921   NI        0.392353    0.491717    0.869935     0.004307
NI3922   NI        0.443959    0.445791    0.862308     0.004307
NI3923   NI        0.475556    0.479812    0.855895     0.004307
NI3924   NI        0.544793    0.476799    0.867607     0.004307
NI3925   NI        0.445165    0.516174    0.848939     0.004307
