data_00001
_audit_creation_method   'DISCUS'

_data_chemical_name_common 'Au.cell: lattice parameter from Pearson85'

_cell_length_a             57.1046
_cell_length_b             57.1046
_cell_length_c             57.1046
_cell_angle_alpha     90.0000
_cell_angle_beta      90.0000
_cell_angle_gamma     90.0000

_symmetry_space_group_name_H-M   'P1              '

loop_
_atom_site_label
_atom_site_symbol
_atom_site_fract_x
_atom_site_fract_y
_atom_site_fract_z
_atom_site_u_iso_or_equiv
PD1   PD        0.361211    0.256689    0.036121     0.005394
PD2   PD        0.431927    0.258633    0.037014     0.005394
PD3   PD        0.502053    0.259941    0.038315     0.005394
AU4   AU        0.288567    0.327704    0.035312     0.007504
AU5   AU        0.325394    0.288221    0.033484     0.007504
PD6   PD        0.359586    0.327579    0.037166     0.005394
AU7   AU        0.396735    0.291954    0.034880     0.007504
PD8   PD        0.432611    0.331316    0.037914     0.005394
PD9   PD        0.464926    0.294476    0.039962     0.005394
AU10   AU        0.497875    0.331027    0.035098     0.007504
AU11   AU        0.535855    0.296373    0.033167     0.007504
PD12   PD        0.571268    0.330894    0.038585     0.005394
AU13   AU        0.250173    0.365169    0.038035     0.007504
PD14   PD        0.288013    0.395806    0.040910     0.005394
AU15   AU        0.323222    0.363829    0.037704     0.007504
PD16   PD        0.361022    0.397473    0.038797     0.005394
PD17   PD        0.395530    0.361570    0.038188     0.005394
PD18   PD        0.393868    0.398872    0.001762     0.005394
AU19   AU        0.432938    0.365457    0.000714     0.007504
PD20   PD        0.428760    0.399548    0.040879     0.005394
AU21   AU        0.464826    0.367500    0.041545     0.007504
AU22   AU        0.466445    0.401879    0.003756     0.007504
PD23   PD        0.501169    0.402545    0.041491     0.005394
AU24   AU        0.535996    0.366735    0.033809     0.007504
AU25   AU        0.571962    0.402753    0.036224     0.007504
PD26   PD        0.607168    0.366714    0.035517     0.005394
PD27   PD        0.253852    0.429926    0.038638     0.005394
AU28   AU        0.287962    0.467250    0.039956     0.007504
PD29   PD        0.323212    0.432986    0.038643     0.005394
AU30   AU        0.357400    0.433479    0.004720     0.007504
PD31   PD        0.356003    0.469234    0.037299     0.005394
PD32   PD        0.395122    0.434537    0.036859     0.005394
AU33   AU        0.393319    0.471415    0.002096     0.007504
PD34   PD        0.427240    0.435985    0.003344     0.005394
PD35   PD        0.429301    0.470660    0.037833     0.005394
AU36   AU        0.464852    0.435703    0.038234     0.007504
AU37   AU        0.463966    0.469214    0.001673     0.007504
PD38   PD        0.503067    0.437905    0.004164     0.005394
PD39   PD        0.499217    0.472442    0.038493     0.005394
PD40   PD        0.535870    0.437081    0.037854     0.005394
AU41   AU        0.571419    0.471661    0.036932     0.007504
AU42   AU        0.610433    0.434634    0.037863     0.007504
PD43   PD        0.254104    0.502977    0.038973     0.005394
AU44   AU        0.289676    0.541049    0.038621     0.007504
PD45   PD        0.324171    0.504606    0.039581     0.005394
PD46   PD        0.360193    0.537846    0.040805     0.005394
PD47   PD        0.395147    0.504027    0.040243     0.005394
PD48   PD        0.427607    0.506671    0.005122     0.005394
PD49   PD        0.428202    0.539803    0.040544     0.005394
AU50   AU        0.464098    0.505926    0.038016     0.007504
PD51   PD        0.499927    0.541492    0.039814     0.005394
AU52   AU        0.535747    0.509380    0.038474     0.007504
PD53   PD        0.572519    0.542830    0.042566     0.005394
PD54   PD        0.607200    0.507651    0.038791     0.005394
AU55   AU        0.324357    0.577705    0.039960     0.007504
PD56   PD        0.361965    0.609528    0.042256     0.005394
PD57   PD        0.394003    0.573515    0.041178     0.005394
AU58   AU        0.427006    0.612267    0.038848     0.007504
AU59   AU        0.463045    0.573823    0.038883     0.007504
PD60   PD        0.499730    0.612072    0.040424     0.005394
PD61   PD        0.534487    0.576322    0.040414     0.005394
PD62   PD        0.290192    0.186155    0.107525     0.005394
PD63   PD        0.363227    0.184037    0.104368     0.005394
AU64   AU        0.396672    0.147423    0.102700     0.007504
PD65   PD        0.397048    0.189400    0.070178     0.005394
AU66   AU        0.429976    0.185988    0.107256     0.007504
AU67   AU        0.466101    0.145362    0.103428     0.007504
AU68   AU        0.465797    0.187514    0.072098     0.007504
AU69   AU        0.503866    0.183271    0.104122     0.007504
PD70   PD        0.574283    0.184268    0.106929     0.005394
PD71   PD        0.218622    0.254694    0.105891     0.005394
AU72   AU        0.251911    0.219898    0.107376     0.007504
AU73   AU        0.257560    0.257111    0.070408     0.007504
AU74   AU        0.288887    0.256002    0.108387     0.007504
PD75   PD        0.326576    0.219480    0.106722     0.005394
AU76   AU        0.326019    0.256933    0.073125     0.007504
AU77   AU        0.361167    0.221519    0.072013     0.007504
PD78   PD        0.361652    0.255203    0.108087     0.005394
PD79   PD        0.396929    0.221750    0.107709     0.005394
AU80   AU        0.396912    0.255376    0.072046     0.007504
PD81   PD        0.432595    0.222367    0.072600     0.005394
PD82   PD        0.431535    0.257099    0.107211     0.005394
PD83   PD        0.466814    0.222609    0.106295     0.005394
AU84   AU        0.468238    0.258271    0.070093     0.007504
PD85   PD        0.502863    0.222507    0.072657     0.005394
AU86   AU        0.502419    0.258306    0.108402     0.007504
AU87   AU        0.537363    0.220329    0.107511     0.007504
AU88   AU        0.539414    0.259448    0.069622     0.007504
PD89   PD        0.571418    0.257204    0.109504     0.005394
AU90   AU        0.608905    0.218128    0.106842     0.007504
PD91   PD        0.608261    0.255873    0.072924     0.005394
AU92   AU        0.644066    0.257711    0.107155     0.007504
PD93   PD        0.182013    0.292874    0.108337     0.005394
AU94   AU        0.216080    0.327246    0.108176     0.007504
AU95   AU        0.252278    0.291358    0.108484     0.007504
AU96   AU        0.251699    0.327842    0.072632     0.007504
AU97   AU        0.290534    0.291845    0.073613     0.007504
AU98   AU        0.290003    0.325813    0.108501     0.007504
PD99   PD        0.327658    0.292839    0.106457     0.005394
PD100   PD        0.325545    0.326587    0.069993     0.005394
PD101   PD        0.359657    0.291250    0.071724     0.005394
PD102   PD        0.358627    0.325470    0.107358     0.005394
PD103   PD        0.395834    0.293797    0.104716     0.005394
AU104   AU        0.394490    0.327045    0.072173     0.007504
PD105   PD        0.431897    0.292419    0.072428     0.005394
AU106   AU        0.430336    0.327715    0.108097     0.007504
PD107   PD        0.467392    0.292096    0.108939     0.005394
PD108   PD        0.466933    0.329064    0.074724     0.005394
PD109   PD        0.500502    0.295263    0.072349     0.005394
AU110   AU        0.501196    0.325233    0.109925     0.007504
PD111   PD        0.540222    0.292918    0.110105     0.005394
AU112   AU        0.535771    0.328859    0.073422     0.007504
AU113   AU        0.573720    0.293748    0.073131     0.007504
AU114   AU        0.572524    0.329123    0.109646     0.007504
AU115   AU        0.609562    0.291884    0.110529     0.007504
AU116   AU        0.607124    0.330035    0.072944     0.007504
AU117   AU        0.644624    0.326277    0.104659     0.007504
PD118   PD        0.680169    0.292490    0.109622     0.005394
AU119   AU        0.143819    0.394699    0.110866     0.007504
PD120   PD        0.180469    0.361006    0.108929     0.005394
PD121   PD        0.181246    0.397218    0.077105     0.005394
PD122   PD        0.215462    0.363525    0.075622     0.005394
PD123   PD        0.217321    0.396963    0.108821     0.005394
PD124   PD        0.250795    0.360749    0.110862     0.005394
PD125   PD        0.252997    0.395623    0.073515     0.005394
PD126   PD        0.288382    0.362137    0.074717     0.005394
AU127   AU        0.289834    0.397381    0.110543     0.007504
PD128   PD        0.323445    0.359959    0.108824     0.005394
AU129   AU        0.322535    0.397872    0.075293     0.007504
PD130   PD        0.359841    0.361579    0.073048     0.005394
AU131   AU        0.358412    0.397721    0.109470     0.007504
AU132   AU        0.395433    0.365700    0.107914     0.007504
PD133   PD        0.393286    0.397913    0.072893     0.005394
PD134   PD        0.429951    0.363524    0.076089     0.005394
PD135   PD        0.429832    0.399562    0.108429     0.005394
PD136   PD        0.467014    0.362383    0.110268     0.005394
PD137   PD        0.463906    0.399576    0.078360     0.005394
AU138   AU        0.502406    0.367326    0.073008     0.007504
PD139   PD        0.503204    0.398479    0.108361     0.005394
PD140   PD        0.539509    0.364281    0.109110     0.005394
PD141   PD        0.538385    0.403234    0.075381     0.005394
AU142   AU        0.571785    0.367346    0.070934     0.007504
AU143   AU        0.571917    0.399345    0.110683     0.007504
AU144   AU        0.608487    0.363378    0.108390     0.007504
AU145   AU        0.607906    0.400389    0.072480     0.007504
PD146   PD        0.642733    0.366412    0.070587     0.005394
PD147   PD        0.645037    0.398973    0.108424     0.005394
AU148   AU        0.677357    0.362752    0.107395     0.007504
AU149   AU        0.677115    0.400318    0.069918     0.007504
AU150   AU        0.713400    0.397806    0.108179     0.007504
AU151   AU        0.143892    0.469930    0.107210     0.007504
PD152   PD        0.181768    0.432535    0.112011     0.005394
AU153   AU        0.180176    0.467555    0.074530     0.007504
AU154   AU        0.217473    0.432522    0.076005     0.007504
PD155   PD        0.214849    0.468292    0.110286     0.005394
PD156   PD        0.253206    0.432357    0.109296     0.005394
PD157   PD        0.253658    0.467122    0.074937     0.005394
PD158   PD        0.287455    0.431151    0.074261     0.005394
PD159   PD        0.287520    0.470363    0.111885     0.005394
AU160   AU        0.322048    0.432174    0.110747     0.007504
AU161   AU        0.322543    0.469718    0.076526     0.007504
AU162   AU        0.360523    0.431874    0.071595     0.007504
PD163   PD        0.356808    0.471655    0.110131     0.005394
AU164   AU        0.391752    0.434222    0.108118     0.007504
AU165   AU        0.393940    0.468868    0.073654     0.007504
AU166   AU        0.428966    0.435851    0.075485     0.007504
PD167   PD        0.430375    0.469544    0.109851     0.005394
PD168   PD        0.467512    0.436079    0.108310     0.005394
AU169   AU        0.466334    0.470112    0.073142     0.007504
AU170   AU        0.502343    0.436530    0.074554     0.007504
PD171   PD        0.500566    0.467681    0.108616     0.005394
PD172   PD        0.537848    0.436478    0.108819     0.005394
PD173   PD        0.535024    0.472630    0.074181     0.005394
AU174   AU        0.570166    0.438837    0.073745     0.007504
PD175   PD        0.571864    0.471938    0.106510     0.005394
AU176   AU        0.605199    0.434570    0.110331     0.007504
PD177   PD        0.608677    0.471548    0.073831     0.005394
PD178   PD        0.644483    0.436132    0.078277     0.005394
PD179   PD        0.642682    0.471551    0.112101     0.005394
PD180   PD        0.678240    0.435921    0.111313     0.005394
AU181   AU        0.678315    0.472218    0.073188     0.007504
PD182   PD        0.714234    0.471546    0.108121     0.005394
PD183   PD        0.182553    0.503103    0.110171     0.005394
AU184   AU        0.216146    0.502780    0.074624     0.007504
PD185   PD        0.217208    0.539630    0.109851     0.005394
AU186   AU        0.250921    0.502222    0.109840     0.007504
PD187   PD        0.252358    0.540690    0.073545     0.005394
AU188   AU        0.288054    0.505548    0.074658     0.007504
PD189   PD        0.289101    0.540251    0.111415     0.005394
PD190   PD        0.323896    0.505547    0.112060     0.005394
PD191   PD        0.323231    0.540310    0.075284     0.005394
AU192   AU        0.358373    0.504167    0.074302     0.007504
PD193   PD        0.360588    0.539930    0.111330     0.005394
AU194   AU        0.396776    0.504771    0.109755     0.007504
PD195   PD        0.393901    0.540399    0.074772     0.005394
PD196   PD        0.430410    0.504176    0.073830     0.005394
PD197   PD        0.430936    0.541131    0.109952     0.005394
AU198   AU        0.465271    0.505298    0.110080     0.007504
PD199   PD        0.465816    0.540301    0.075490     0.005394
PD200   PD        0.499846    0.506292    0.074899     0.005394
AU201   AU        0.501725    0.542216    0.110786     0.007504
PD202   PD        0.537944    0.504578    0.109578     0.005394
PD203   PD        0.533892    0.539816    0.075978     0.005394
AU204   AU        0.572174    0.507225    0.076019     0.007504
PD205   PD        0.571595    0.541239    0.110401     0.005394
AU206   AU        0.607276    0.506238    0.112255     0.007504
PD207   PD        0.607827    0.542640    0.075357     0.005394
PD208   PD        0.640347    0.506754    0.075447     0.005394
PD209   PD        0.642766    0.542759    0.109815     0.005394
AU210   AU        0.678275    0.509146    0.110135     0.007504
AU211   AU        0.183858    0.575621    0.106501     0.007504
PD212   PD        0.218885    0.611656    0.109146     0.005394
AU213   AU        0.252990    0.575640    0.108016     0.007504
AU214   AU        0.252708    0.611543    0.073901     0.007504
AU215   AU        0.291110    0.575248    0.074790     0.007504
PD216   PD        0.289087    0.608535    0.111434     0.005394
AU217   AU        0.323201    0.574312    0.114230     0.007504
PD218   PD        0.325692    0.611082    0.076018     0.005394
PD219   PD        0.358825    0.574418    0.075711     0.005394
PD220   PD        0.359284    0.610375    0.110712     0.005394
AU221   AU        0.394141    0.575484    0.109666     0.007504
PD222   PD        0.395356    0.607907    0.075942     0.005394
AU223   AU        0.430440    0.574139    0.074997     0.007504
AU224   AU        0.429305    0.614012    0.112323     0.007504
AU225   AU        0.464904    0.579007    0.111788     0.007504
AU226   AU        0.462554    0.612555    0.074942     0.007504
PD227   PD        0.499866    0.577702    0.074776     0.005394
PD228   PD        0.501391    0.610819    0.110314     0.005394
AU229   AU        0.535856    0.578358    0.108924     0.007504
PD230   PD        0.537665    0.613393    0.075937     0.005394
AU231   AU        0.572641    0.577577    0.075354     0.007504
PD232   PD        0.570860    0.613070    0.111852     0.005394
PD233   PD        0.609528    0.576304    0.110721     0.005394
PD234   PD        0.605119    0.613014    0.076897     0.005394
AU235   AU        0.641314    0.614943    0.111165     0.007504
PD236   PD        0.675137    0.581073    0.111357     0.005394
PD237   PD        0.257270    0.643826    0.110253     0.005394
AU238   AU        0.288849    0.681936    0.107918     0.007504
AU239   AU        0.323496    0.644807    0.111120     0.007504
PD240   PD        0.359686    0.646093    0.077091     0.005394
PD241   PD        0.357047    0.679417    0.110666     0.005394
AU242   AU        0.391440    0.645266    0.112445     0.007504
PD243   PD        0.392290    0.679871    0.078869     0.005394
PD244   PD        0.425897    0.649258    0.076477     0.005394
PD245   PD        0.425682    0.681332    0.111668     0.005394
PD246   PD        0.462098    0.648918    0.113052     0.005394
AU247   AU        0.462488    0.682222    0.075682     0.007504
AU248   AU        0.500002    0.647896    0.075941     0.007504
PD249   PD        0.499187    0.681334    0.111853     0.005394
PD250   PD        0.534710    0.646478    0.111083     0.005394
AU251   AU        0.570968    0.682644    0.107424     0.007504
PD252   PD        0.607420    0.649191    0.111502     0.005394
AU253   AU        0.391274    0.716446    0.108683     0.007504
PD254   PD        0.462328    0.715747    0.112135     0.005394
PD255   PD        0.294214    0.113964    0.175885     0.005394
PD256   PD        0.361102    0.113172    0.177639     0.005394
PD257   PD        0.396205    0.079115    0.178524     0.005394
PD258   PD        0.397099    0.113772    0.142828     0.005394
PD259   PD        0.431297    0.111605    0.178739     0.005394
PD260   PD        0.464899    0.076727    0.180582     0.005394
AU261   AU        0.465867    0.110421    0.143156     0.007504
PD262   PD        0.501903    0.111561    0.179612     0.005394
PD263   PD        0.572428    0.113323    0.179224     0.005394
AU264   AU        0.217925    0.181664    0.178156     0.007504
AU265   AU        0.253192    0.144794    0.178185     0.007504
AU266   AU        0.253019    0.179440    0.139916     0.007504
PD267   PD        0.291116    0.147180    0.142647     0.005394
AU268   AU        0.287731    0.181544    0.178646     0.007504
PD269   PD        0.325125    0.147810    0.178591     0.005394
AU270   AU        0.326053    0.182111    0.142527     0.007504
AU271   AU        0.361553    0.145838    0.141639     0.007504
PD272   PD        0.360437    0.180960    0.175418     0.005394
AU273   AU        0.395431    0.146201    0.178933     0.007504
PD274   PD        0.395592    0.180169    0.145492     0.005394
AU275   AU        0.432183    0.145428    0.140940     0.007504
AU276   AU        0.430552    0.183132    0.178099     0.007504
PD277   PD        0.465339    0.145495    0.176994     0.005394
AU278   AU        0.467084    0.183665    0.140662     0.007504
PD279   PD        0.498374    0.145718    0.141369     0.005394
AU280   AU        0.502625    0.181778    0.177292     0.007504
AU281   AU        0.537834    0.146644    0.173693     0.007504
AU282   AU        0.537552    0.182902    0.140870     0.007504
AU283   AU        0.574130    0.146752    0.139723     0.007504
AU284   AU        0.574705    0.183337    0.178777     0.007504
AU285   AU        0.607690    0.147268    0.178509     0.007504
PD286   PD        0.609216    0.183623    0.143255     0.005394
AU287   AU        0.645324    0.183901    0.178087     0.007504
PD288   PD        0.145575    0.253781    0.180927     0.005394
PD289   PD        0.184441    0.218923    0.178467     0.005394
AU290   AU        0.177718    0.252307    0.141882     0.007504
PD291   PD        0.216750    0.218180    0.141993     0.005394
AU292   AU        0.218176    0.252770    0.179881     0.007504
AU293   AU        0.253357    0.218322    0.177989     0.007504
PD294   PD        0.253205    0.252961    0.144166     0.005394
PD295   PD        0.288073    0.219768    0.140904     0.005394
PD296   PD        0.287473    0.252080    0.177357     0.005394
AU297   AU        0.324153    0.217697    0.179980     0.007504
AU298   AU        0.326137    0.255393    0.142686     0.007504
PD299   PD        0.359645    0.219184    0.141312     0.005394
PD300   PD        0.359730    0.255032    0.179324     0.005394
PD301   PD        0.393474    0.219602    0.176561     0.005394
AU302   AU        0.394012    0.255331    0.144130     0.007504
PD303   PD        0.430084    0.220825    0.143896     0.005394
PD304   PD        0.430622    0.253148    0.178016     0.005394
AU305   AU        0.466666    0.219501    0.177688     0.007504
PD306   PD        0.467216    0.255210    0.142600     0.005394
AU307   AU        0.501766    0.219509    0.140165     0.007504
PD308   PD        0.504382    0.254661    0.176710     0.005394
AU309   AU        0.537602    0.218285    0.176702     0.007504
PD310   PD        0.539007    0.256273    0.145010     0.005394
PD311   PD        0.571931    0.219916    0.141428     0.005394
AU312   AU        0.572652    0.255482    0.176665     0.007504
AU313   AU        0.608097    0.221047    0.177620     0.007504
PD314   PD        0.607496    0.256111    0.144028     0.005394
PD315   PD        0.644500    0.220446    0.143013     0.005394
PD316   PD        0.643971    0.255190    0.178759     0.005394
PD317   PD        0.678013    0.220542    0.179833     0.005394
AU318   AU        0.681479    0.254581    0.142732     0.007504
PD319   PD        0.717606    0.257442    0.177932     0.005394
AU320   AU        0.111593    0.288878    0.181580     0.007504
AU321   AU        0.144731    0.292180    0.140872     0.007504
PD322   PD        0.149694    0.326137    0.180293     0.005394
AU323   AU        0.179404    0.286911    0.176193     0.007504
PD324   PD        0.181925    0.324703    0.146440     0.005394
AU325   AU        0.218048    0.287738    0.142311     0.007504
AU326   AU        0.216550    0.322729    0.178120     0.007504
AU327   AU        0.254067    0.287392    0.179288     0.007504
PD328   PD        0.250040    0.326715    0.143819     0.005394
AU329   AU        0.288024    0.291094    0.144470     0.007504
AU330   AU        0.288613    0.323643    0.180726     0.007504
PD331   PD        0.325228    0.289805    0.175336     0.005394
AU332   AU        0.321520    0.327439    0.146011     0.007504
AU333   AU        0.360794    0.290355    0.143168     0.007504
PD334   PD        0.357122    0.322723    0.181263     0.005394
AU335   AU        0.394588    0.289677    0.181618     0.007504
AU336   AU        0.397102    0.326622    0.143294     0.007504
AU337   AU        0.430662    0.287870    0.145544     0.007504
AU338   AU        0.429750    0.325696    0.180928     0.007504
AU339   AU        0.467753    0.289108    0.178596     0.007504
AU340   AU        0.466397    0.326369    0.141862     0.007504
PD341   PD        0.504741    0.291382    0.144801     0.005394
PD342   PD        0.502572    0.325936    0.178505     0.005394
PD343   PD        0.537379    0.289772    0.179647     0.005394
AU344   AU        0.538471    0.326142    0.144996     0.007504
PD345   PD        0.575611    0.292636    0.144521     0.005394
AU346   AU        0.574037    0.326499    0.178890     0.007504
AU347   AU        0.609697    0.290796    0.179437     0.007504
PD348   PD        0.611736    0.327193    0.145196     0.005394
PD349   PD        0.645494    0.291809    0.144412     0.005394
PD350   PD        0.647263    0.325171    0.180885     0.005394
PD351   PD        0.680798    0.289135    0.180865     0.005394
PD352   PD        0.679848    0.326711    0.144833     0.005394
AU353   AU        0.714845    0.293003    0.144340     0.007504
AU354   AU        0.717643    0.326880    0.178234     0.007504
PD355   PD        0.753584    0.290743    0.180554     0.005394
PD356   PD        0.075224    0.395175    0.182648     0.005394
PD357   PD        0.112241    0.359690    0.180524     0.005394
PD358   PD        0.109712    0.397113    0.147160     0.005394
PD359   PD        0.147619    0.360467    0.148496     0.005394
PD360   PD        0.146800    0.396138    0.181544     0.005394
PD361   PD        0.182565    0.360068    0.181325     0.005394
AU362   AU        0.179138    0.397561    0.145563     0.007504
PD363   PD        0.212198    0.362093    0.143441     0.005394
AU364   AU        0.217363    0.399056    0.176238     0.007504
PD365   PD        0.251284    0.362416    0.179924     0.005394
AU366   AU        0.253427    0.397593    0.143626     0.007504
PD367   PD        0.286152    0.361553    0.144567     0.005394
AU368   AU        0.286394    0.395761    0.181068     0.007504
PD369   PD        0.324796    0.360761    0.182945     0.005394
PD370   PD        0.322897    0.392920    0.147253     0.005394
AU371   AU        0.358935    0.358179    0.144129     0.007504
PD372   PD        0.358552    0.397474    0.180810     0.005394
AU373   AU        0.392461    0.359707    0.179481     0.007504
PD374   PD        0.394826    0.399292    0.145764     0.005394
AU375   AU        0.430399    0.363487    0.145393     0.007504
AU376   AU        0.428975    0.396572    0.181559     0.007504
AU377   AU        0.467174    0.361377    0.177099     0.007504
PD378   PD        0.466578    0.399176    0.141840     0.005394
PD379   PD        0.504128    0.363874    0.142866     0.005394
PD380   PD        0.502134    0.396314    0.179229     0.005394
AU381   AU        0.538297    0.364829    0.180489     0.007504
PD382   PD        0.538024    0.398346    0.144475     0.005394
AU383   AU        0.572874    0.365199    0.145994     0.007504
PD384   PD        0.572691    0.399910    0.180620     0.005394
AU385   AU        0.609163    0.364754    0.178165     0.007504
AU386   AU        0.609736    0.398777    0.144621     0.007504
AU387   AU        0.644950    0.364736    0.144256     0.007504
PD388   PD        0.645473    0.398700    0.182172     0.005394
AU389   AU        0.680945    0.362182    0.177815     0.007504
PD390   PD        0.679698    0.399770    0.143530     0.005394
AU391   AU        0.718207    0.361301    0.142257     0.007504
AU392   AU        0.717985    0.398838    0.176849     0.007504
AU393   AU        0.755184    0.363669    0.176139     0.007504
PD394   PD        0.750645    0.400458    0.142933     0.005394
AU395   AU        0.787899    0.400017    0.179909     0.007504
PD396   PD        0.074248    0.464947    0.180689     0.005394
PD397   PD        0.113692    0.433306    0.179552     0.005394
AU398   AU        0.108938    0.469648    0.145758     0.007504
AU399   AU        0.143854    0.433735    0.142533     0.007504
PD400   PD        0.146300    0.466891    0.179269     0.005394
AU401   AU        0.181520    0.433879    0.178657     0.007504
PD402   PD        0.180445    0.468908    0.142619     0.005394
PD403   PD        0.217691    0.436152    0.144163     0.005394
PD404   PD        0.216434    0.467574    0.179103     0.005394
PD405   PD        0.251656    0.433338    0.180369     0.005394
PD406   PD        0.252119    0.467493    0.144787     0.005394
AU407   AU        0.288872    0.432294    0.146362     0.007504
PD408   PD        0.286996    0.466737    0.179561     0.005394
PD409   PD        0.322573    0.429639    0.180867     0.005394
PD410   PD        0.322302    0.466549    0.145300     0.005394
AU411   AU        0.358766    0.433006    0.144506     0.007504
AU412   AU        0.358160    0.467291    0.181127     0.007504
AU413   AU        0.396715    0.433788    0.180906     0.007504
AU414   AU        0.394244    0.468102    0.145137     0.007504
AU415   AU        0.430133    0.433413    0.142455     0.007504
AU416   AU        0.434742    0.466307    0.181786     0.007504
AU417   AU        0.466365    0.430659    0.179870     0.007504
PD418   PD        0.466773    0.471087    0.142732     0.005394
AU419   AU        0.501035    0.434901    0.145343     0.007504
PD420   PD        0.500280    0.471151    0.179502     0.005394
AU421   AU        0.536430    0.432816    0.179715     0.007504
AU422   AU        0.537514    0.471460    0.142825     0.007504
PD423   PD        0.571985    0.434765    0.144912     0.005394
AU424   AU        0.572923    0.467882    0.179944     0.007504
PD425   PD        0.606265    0.433747    0.179142     0.005394
AU426   AU        0.606612    0.470159    0.145954     0.007504
AU427   AU        0.645322    0.435706    0.145643     0.007504
PD428   PD        0.641815    0.469312    0.179719     0.005394
AU429   AU        0.679605    0.435171    0.182066     0.007504
AU430   AU        0.679798    0.470459    0.145384     0.007504
AU431   AU        0.714288    0.435875    0.145057     0.007504
AU432   AU        0.715732    0.471425    0.182208     0.007504
PD433   PD        0.753850    0.435086    0.177884     0.005394
AU434   AU        0.750882    0.472216    0.143649     0.007504
AU435   AU        0.788424    0.469222    0.182421     0.007504
AU436   AU        0.108375    0.502566    0.180066     0.007504
AU437   AU        0.145698    0.505220    0.142528     0.007504
AU438   AU        0.143657    0.539570    0.178938     0.007504
AU439   AU        0.180452    0.502687    0.179067     0.007504
AU440   AU        0.180835    0.540041    0.145079     0.007504
AU441   AU        0.214563    0.504005    0.145131     0.007504
AU442   AU        0.217196    0.542384    0.179826     0.007504
PD443   PD        0.252496    0.505082    0.180396     0.005394
PD444   PD        0.252572    0.537999    0.145518     0.005394
AU445   AU        0.288907    0.503996    0.145588     0.007504
AU446   AU        0.288457    0.537664    0.177974     0.007504
AU447   AU        0.325604    0.501772    0.181103     0.007504
PD448   PD        0.323190    0.538736    0.145757     0.005394
AU449   AU        0.359244    0.503666    0.145752     0.007504
AU450   AU        0.359385    0.538839    0.180965     0.007504
AU451   AU        0.394655    0.502893    0.181017     0.007504
PD452   PD        0.395927    0.541194    0.146068     0.005394
PD453   PD        0.431543    0.504909    0.143498     0.005394
AU454   AU        0.430376    0.540324    0.180288     0.007504
AU455   AU        0.466897    0.503158    0.177668     0.007504
PD456   PD        0.466281    0.541579    0.145574     0.005394
PD457   PD        0.502483    0.504527    0.142573     0.005394
AU458   AU        0.502517    0.539236    0.178238     0.007504
PD459   PD        0.536566    0.506304    0.175555     0.005394
AU460   AU        0.537784    0.541005    0.144522     0.007504
PD461   PD        0.574568    0.505320    0.145766     0.005394
PD462   PD        0.572571    0.542311    0.179587     0.005394
PD463   PD        0.607037    0.505504    0.182406     0.005394
AU464   AU        0.608076    0.542481    0.144911     0.007504
AU465   AU        0.642983    0.505230    0.146810     0.007504
AU466   AU        0.643695    0.540941    0.181480     0.007504
PD467   PD        0.679719    0.502869    0.183702     0.005394
AU468   AU        0.676060    0.543407    0.146552     0.007504
PD469   PD        0.712414    0.507228    0.146085     0.005394
PD470   PD        0.713955    0.541561    0.179228     0.005394
PD471   PD        0.750107    0.506056    0.179649     0.005394
AU472   AU        0.107941    0.575127    0.178726     0.007504
PD473   PD        0.145200    0.576903    0.141891     0.005394
AU474   AU        0.143163    0.612244    0.179109     0.007504
AU475   AU        0.181162    0.575047    0.177492     0.007504
AU476   AU        0.182623    0.608690    0.143629     0.007504
PD477   PD        0.218569    0.572877    0.143168     0.005394
PD478   PD        0.218546    0.609261    0.180032     0.005394
PD479   PD        0.252909    0.573856    0.182318     0.005394
PD480   PD        0.252732    0.609438    0.145402     0.005394
PD481   PD        0.285440    0.573889    0.145162     0.005394
PD482   PD        0.289430    0.608435    0.180116     0.005394
PD483   PD        0.319683    0.573826    0.179355     0.005394
AU484   AU        0.324260    0.610110    0.146771     0.007504
PD485   PD        0.359190    0.573725    0.145434     0.005394
AU486   AU        0.356966    0.610716    0.180403     0.007504
AU487   AU        0.393454    0.573433    0.181813     0.007504
PD488   PD        0.392004    0.611481    0.146406     0.005394
PD489   PD        0.430603    0.576710    0.144655     0.005394
AU490   AU        0.428465    0.610164    0.180678     0.007504
AU491   AU        0.465270    0.576105    0.180558     0.007504
PD492   PD        0.466579    0.610815    0.145946     0.005394
PD493   PD        0.502970    0.575319    0.145481     0.005394
AU494   AU        0.500795    0.610637    0.181473     0.007504
PD495   PD        0.535029    0.576810    0.179464     0.005394
AU496   AU        0.533701    0.610757    0.147435     0.007504
AU497   AU        0.571395    0.575761    0.145044     0.007504
AU498   AU        0.571215    0.611814    0.181449     0.007504
AU499   AU        0.606796    0.575181    0.180848     0.007504
PD500   PD        0.606595    0.613340    0.144845     0.005394
PD501   PD        0.642316    0.578558    0.144575     0.005394
AU502   AU        0.642847    0.611904    0.181095     0.007504
PD503   PD        0.679357    0.577860    0.182214     0.005394
PD504   PD        0.678668    0.613418    0.147420     0.005394
AU505   AU        0.713989    0.577411    0.142454     0.007504
PD506   PD        0.713283    0.612974    0.182160     0.005394
AU507   AU        0.749939    0.576680    0.180134     0.007504
AU508   AU        0.184355    0.645750    0.180154     0.007504
AU509   AU        0.215968    0.645976    0.141888     0.007504
AU510   AU        0.216843    0.683212    0.178344     0.007504
AU511   AU        0.253153    0.645601    0.181524     0.007504
PD512   PD        0.254924    0.681294    0.145519     0.005394
PD513   PD        0.288582    0.642344    0.146474     0.005394
AU514   AU        0.289061    0.681582    0.180126     0.007504
PD515   PD        0.323073    0.646987    0.182365     0.005394
AU516   AU        0.322869    0.681624    0.146116     0.007504
PD517   PD        0.357130    0.645645    0.146267     0.005394
PD518   PD        0.356403    0.681711    0.182812     0.005394
AU519   AU        0.394628    0.648257    0.180880     0.007504
AU520   AU        0.391614    0.683299    0.146192     0.007504
PD521   PD        0.428078    0.646163    0.147023     0.005394
AU522   AU        0.427913    0.684248    0.182676     0.007504
AU523   AU        0.463907    0.647516    0.178990     0.007504
PD524   PD        0.462725    0.681970    0.146040     0.005394
AU525   AU        0.500562    0.647437    0.145954     0.007504
AU526   AU        0.499096    0.681807    0.180771     0.007504
PD527   PD        0.535672    0.646900    0.181620     0.005394
PD528   PD        0.534477    0.681762    0.144603     0.005394
PD529   PD        0.570980    0.646584    0.145990     0.005394
AU530   AU        0.570795    0.682875    0.179454     0.007504
PD531   PD        0.607370    0.648161    0.183463     0.005394
PD532   PD        0.607153    0.682759    0.145835     0.005394
AU533   AU        0.642338    0.646035    0.147645     0.007504
PD534   PD        0.640439    0.684438    0.180659     0.005394
PD535   PD        0.676669    0.647016    0.183333     0.005394
PD536   PD        0.254544    0.716757    0.181159     0.005394
PD537   PD        0.289775    0.714661    0.147376     0.005394
AU538   AU        0.285522    0.756064    0.181468     0.007504
AU539   AU        0.320926    0.718829    0.183355     0.007504
PD540   PD        0.356441    0.717308    0.147430     0.005394
PD541   PD        0.354991    0.753658    0.183317     0.005394
PD542   PD        0.389375    0.718696    0.183693     0.005394
AU543   AU        0.388323    0.752521    0.146589     0.007504
PD544   PD        0.427852    0.716028    0.145251     0.005394
AU545   AU        0.426198    0.751950    0.181194     0.007504
PD546   PD        0.463701    0.717615    0.180850     0.005394
PD547   PD        0.464534    0.751051    0.145668     0.005394
PD548   PD        0.501853    0.717273    0.145353     0.005394
PD549   PD        0.500587    0.751050    0.179261     0.005394
AU550   AU        0.534166    0.716590    0.181620     0.007504
AU551   AU        0.569578    0.719751    0.144492     0.007504
PD552   PD        0.570494    0.753710    0.183724     0.005394
PD553   PD        0.605316    0.718904    0.183719     0.005394
AU554   AU        0.392066    0.791523    0.181508     0.007504
AU555   AU        0.464249    0.788738    0.181153     0.007504
PD556   PD        0.360637    0.041691    0.248835     0.005394
AU557   AU        0.430391    0.041241    0.248023     0.007504
PD558   PD        0.501239    0.042920    0.249157     0.005394
PD559   PD        0.217789    0.108852    0.252396     0.005394
PD560   PD        0.254626    0.075570    0.249934     0.005394
AU561   AU        0.253388    0.106628    0.210914     0.007504
PD562   PD        0.287769    0.110121    0.247243     0.005394
AU563   AU        0.327968    0.075649    0.248927     0.007504
PD564   PD        0.326773    0.109616    0.213635     0.005394
PD565   PD        0.362653    0.075954    0.213991     0.005394
AU566   AU        0.360825    0.109851    0.250362     0.007504
PD567   PD        0.395664    0.074643    0.249694     0.005394
PD568   PD        0.396506    0.114145    0.215989     0.005394
AU569   AU        0.430062    0.078435    0.215541     0.007504
PD570   PD        0.431162    0.113728    0.251140     0.005394
PD571   PD        0.466144    0.076737    0.248434     0.005394
AU572   AU        0.466246    0.112389    0.213599     0.007504
PD573   PD        0.500415    0.077025    0.215048     0.005394
AU574   AU        0.502904    0.111760    0.248187     0.007504
AU575   AU        0.537010    0.075610    0.250229     0.007504
AU576   AU        0.538751    0.111780    0.214273     0.007504
AU577   AU        0.573877    0.110980    0.248441     0.007504
AU578   AU        0.609723    0.075174    0.248152     0.007504
PD579   PD        0.607678    0.113407    0.212183     0.005394
AU580   AU        0.646157    0.110763    0.246427     0.007504
PD581   PD        0.149121    0.181918    0.251315     0.005394
AU582   AU        0.182523    0.146884    0.250208     0.007504
PD583   PD        0.185890    0.183150    0.214656     0.005394
PD584   PD        0.219900    0.145602    0.215475     0.005394
PD585   PD        0.220351    0.180600    0.250592     0.005394
PD586   PD        0.255962    0.146406    0.249565     0.005394
AU587   AU        0.252577    0.180777    0.212678     0.007504
PD588   PD        0.288755    0.145849    0.212896     0.005394
AU589   AU        0.287437    0.182542    0.249064     0.007504
AU590   AU        0.321195    0.146671    0.249687     0.007504
AU591   AU        0.325005    0.182264    0.213631     0.007504
AU592   AU        0.359158    0.146917    0.213286     0.007504
PD593   PD        0.360142    0.183686    0.250345     0.005394
PD594   PD        0.394767    0.147459    0.249979     0.005394
PD595   PD        0.394470    0.186785    0.211133     0.005394
PD596   PD        0.431033    0.146082    0.212719     0.005394
AU597   AU        0.427360    0.183727    0.246017     0.007504
AU598   AU        0.464673    0.147876    0.250056     0.007504
AU599   AU        0.467201    0.182805    0.213011     0.007504
AU600   AU        0.500734    0.148485    0.213296     0.007504
AU601   AU        0.503543    0.181145    0.249032     0.007504
PD602   PD        0.537107    0.146599    0.249095     0.005394
AU603   AU        0.536818    0.180886    0.213470     0.007504
PD604   PD        0.573008    0.146503    0.214871     0.005394
PD605   PD        0.573377    0.180239    0.247789     0.005394
AU606   AU        0.608692    0.146920    0.249008     0.007504
PD607   PD        0.609249    0.183018    0.212620     0.005394
PD608   PD        0.643855    0.149125    0.212750     0.005394
AU609   AU        0.643841    0.182996    0.248147     0.007504
AU610   AU        0.681348    0.147512    0.247979     0.007504
AU611   AU        0.678238    0.184058    0.213024     0.007504
PD612   PD        0.717539    0.184275    0.248265     0.005394
AU613   AU        0.075454    0.253494    0.251397     0.007504
PD614   PD        0.113844    0.217574    0.250248     0.005394
AU615   AU        0.111348    0.252638    0.217304     0.007504
AU616   AU        0.150568    0.215894    0.216131     0.007504
AU617   AU        0.147320    0.251077    0.250191     0.007504
PD618   PD        0.182663    0.217335    0.250869     0.005394
PD619   PD        0.182069    0.252156    0.214795     0.005394
PD620   PD        0.217243    0.218422    0.213675     0.005394
PD621   PD        0.216223    0.252757    0.250559     0.005394
PD622   PD        0.252413    0.218136    0.250673     0.005394
AU623   AU        0.252250    0.253517    0.216682     0.007504
AU624   AU        0.285364    0.219763    0.213867     0.007504
PD625   PD        0.289749    0.252903    0.253286     0.005394
AU626   AU        0.323533    0.218928    0.249134     0.007504
AU627   AU        0.322159    0.255894    0.213517     0.007504
PD628   PD        0.358850    0.217675    0.212699     0.005394
PD629   PD        0.357639    0.253130    0.248016     0.005394
PD630   PD        0.394221    0.220540    0.250297     0.005394
AU631   AU        0.392772    0.253301    0.214613     0.007504
AU632   AU        0.431554    0.219519    0.212590     0.007504
AU633   AU        0.433005    0.252241    0.247331     0.007504
PD634   PD        0.470097    0.217250    0.249044     0.005394
PD635   PD        0.466662    0.252287    0.212329     0.005394
AU636   AU        0.503951    0.217513    0.213071     0.007504
PD637   PD        0.502223    0.255277    0.249835     0.005394
PD638   PD        0.538004    0.217215    0.246841     0.005394
PD639   PD        0.541039    0.254142    0.211484     0.005394
AU640   AU        0.572238    0.217513    0.212473     0.007504
PD641   PD        0.572408    0.252839    0.249761     0.005394
PD642   PD        0.606711    0.216031    0.249788     0.005394
PD643   PD        0.607850    0.255899    0.214242     0.005394
PD644   PD        0.643372    0.218858    0.213086     0.005394
AU645   AU        0.643199    0.252284    0.249049     0.007504
PD646   PD        0.681167    0.216385    0.249593     0.005394
PD647   PD        0.679921    0.253255    0.215122     0.005394
AU648   AU        0.716203    0.219231    0.213774     0.007504
PD649   PD        0.714163    0.255370    0.251213     0.005394
PD650   PD        0.750650    0.222022    0.249062     0.005394
PD651   PD        0.752829    0.255258    0.214627     0.005394
PD652   PD        0.787213    0.256773    0.248374     0.005394
AU653   AU        0.076034    0.321830    0.251776     0.007504
PD654   PD        0.112064    0.288608    0.252265     0.005394
AU655   AU        0.110300    0.323567    0.215437     0.007504
PD656   PD        0.148352    0.290428    0.212771     0.005394
AU657   AU        0.147394    0.323999    0.251403     0.007504
AU658   AU        0.183628    0.288168    0.250846     0.007504
AU659   AU        0.183357    0.325510    0.215959     0.007504
PD660   PD        0.215454    0.288415    0.214574     0.005394
PD661   PD        0.216836    0.324812    0.250188     0.005394
AU662   AU        0.254053    0.289083    0.249332     0.007504
AU663   AU        0.251702    0.325339    0.212476     0.007504
AU664   AU        0.288458    0.290025    0.213916     0.007504
PD665   PD        0.288942    0.323041    0.252792     0.005394
AU666   AU        0.324229    0.287752    0.250416     0.007504
PD667   PD        0.324068    0.324925    0.217174     0.005394
AU668   AU        0.358302    0.287899    0.214541     0.007504
AU669   AU        0.359444    0.323135    0.251155     0.007504
AU670   AU        0.397098    0.287877    0.247799     0.007504
AU671   AU        0.394402    0.322855    0.214761     0.007504
AU672   AU        0.432381    0.289006    0.212534     0.007504
AU673   AU        0.430293    0.324620    0.250204     0.007504
AU674   AU        0.466245    0.289602    0.247853     0.007504
PD675   PD        0.464599    0.325643    0.215067     0.005394
AU676   AU        0.502770    0.288830    0.214728     0.007504
AU677   AU        0.502495    0.323786    0.250656     0.007504
AU678   AU        0.538327    0.289950    0.249680     0.007504
AU679   AU        0.536175    0.325750    0.213510     0.007504
PD680   PD        0.573460    0.292958    0.212832     0.005394
AU681   AU        0.571729    0.326652    0.250323     0.007504
AU682   AU        0.608879    0.288627    0.248404     0.007504
AU683   AU        0.610575    0.324561    0.212249     0.007504
AU684   AU        0.646209    0.288558    0.214769     0.007504
AU685   AU        0.645918    0.322727    0.249466     0.007504
AU686   AU        0.680235    0.288411    0.249031     0.007504
AU687   AU        0.682085    0.324363    0.214281     0.007504
AU688   AU        0.717276    0.290138    0.214140     0.007504
PD689   PD        0.715832    0.325876    0.251814     0.005394
AU690   AU        0.750349    0.289730    0.253772     0.007504
AU691   AU        0.751322    0.328139    0.216935     0.007504
PD692   PD        0.788672    0.324669    0.248511     0.005394
PD693   PD        0.042975    0.358584    0.248228     0.005394
PD694   PD        0.076917    0.358147    0.215946     0.005394
PD695   PD        0.076354    0.395944    0.249500     0.005394
PD696   PD        0.110463    0.359667    0.251956     0.005394
PD697   PD        0.110613    0.395800    0.216541     0.005394
AU698   AU        0.147320    0.361047    0.216362     0.007504
PD699   PD        0.146048    0.397194    0.251692     0.005394
AU700   AU        0.181858    0.361577    0.250153     0.007504
PD701   PD        0.183523    0.396690    0.215354     0.005394
AU702   AU        0.218005    0.360650    0.214967     0.007504
AU703   AU        0.216380    0.397163    0.250734     0.007504
AU704   AU        0.253737    0.360250    0.251969     0.007504
PD705   PD        0.251083    0.396846    0.216419     0.005394
PD706   PD        0.286840    0.359892    0.216667     0.005394
AU707   AU        0.286969    0.398335    0.252745     0.007504
AU708   AU        0.319776    0.360412    0.250889     0.007504
PD709   PD        0.320990    0.397785    0.215835     0.005394
PD710   PD        0.358092    0.358275    0.217878     0.005394
PD711   PD        0.358021    0.394080    0.250673     0.005394
PD712   PD        0.393874    0.361152    0.249614     0.005394
AU713   AU        0.393883    0.395149    0.216044     0.007504
PD714   PD        0.429273    0.360803    0.215723     0.005394
AU715   AU        0.432486    0.395835    0.253583     0.007504
PD716   PD        0.467559    0.362703    0.251530     0.005394
AU717   AU        0.466075    0.394963    0.214200     0.007504
PD718   PD        0.500251    0.360842    0.211403     0.005394
AU719   AU        0.500053    0.397475    0.251697     0.007504
PD720   PD        0.534968    0.360642    0.248708     0.005394
AU721   AU        0.536137    0.399170    0.214411     0.007504
AU722   AU        0.571003    0.360444    0.215677     0.007504
PD723   PD        0.569236    0.396170    0.251088     0.005394
AU724   AU        0.607587    0.360382    0.250509     0.007504
AU725   AU        0.606410    0.397310    0.215147     0.007504
AU726   AU        0.643633    0.361127    0.215205     0.007504
AU727   AU        0.645265    0.395471    0.252265     0.007504
PD728   PD        0.678158    0.361851    0.250050     0.005394
AU729   AU        0.680568    0.397480    0.214581     0.007504
PD730   PD        0.715302    0.362214    0.213345     0.005394
AU731   AU        0.715558    0.395069    0.249930     0.007504
PD732   PD        0.753119    0.360939    0.252948     0.005394
AU733   AU        0.750522    0.395648    0.213026     0.007504
AU734   AU        0.788059    0.361868    0.217426     0.007504
AU735   AU        0.784235    0.396810    0.251012     0.007504
AU736   AU        0.824149    0.363874    0.253009     0.007504
PD737   PD        0.038877    0.432836    0.247040     0.005394
PD738   PD        0.075241    0.431391    0.215808     0.005394
PD739   PD        0.075563    0.467663    0.250657     0.005394
PD740   PD        0.109732    0.431868    0.249344     0.005394
AU741   AU        0.110338    0.465411    0.214992     0.007504
AU742   AU        0.147182    0.432226    0.216291     0.007504
PD743   PD        0.146411    0.467323    0.252312     0.005394
PD744   PD        0.181426    0.432925    0.251318     0.005394
AU745   AU        0.182060    0.467862    0.213963     0.007504
PD746   PD        0.217631    0.434128    0.216037     0.005394
AU747   AU        0.217568    0.467827    0.251139     0.007504
PD748   PD        0.253056    0.432498    0.250518     0.005394
AU749   AU        0.252229    0.467204    0.214495     0.007504
PD750   PD        0.286547    0.432067    0.215898     0.005394
AU751   AU        0.289112    0.465673    0.252488     0.007504
AU752   AU        0.323355    0.432886    0.250670     0.007504
PD753   PD        0.324480    0.466602    0.215160     0.005394
AU754   AU        0.359372    0.431617    0.216142     0.007504
AU755   AU        0.358324    0.468847    0.250090     0.007504
AU756   AU        0.395336    0.430562    0.251113     0.007504
PD757   PD        0.394997    0.468468    0.217842     0.005394
AU758   AU        0.429065    0.431286    0.217610     0.007504
AU759   AU        0.428591    0.467417    0.254304     0.007504
PD760   PD        0.464674    0.432600    0.252301     0.005394
AU761   AU        0.466399    0.468077    0.218723     0.007504
AU762   AU        0.500299    0.433148    0.216026     0.007504
AU763   AU        0.501658    0.468532    0.250657     0.007504
PD764   PD        0.536494    0.433833    0.251918     0.005394
AU765   AU        0.536375    0.470685    0.214037     0.007504
PD766   PD        0.571974    0.434040    0.216673     0.005394
AU767   AU        0.572850    0.468917    0.250717     0.007504
PD768   PD        0.607166    0.432534    0.250555     0.005394
PD769   PD        0.606773    0.469276    0.215220     0.005394
AU770   AU        0.642371    0.433962    0.215729     0.007504
AU771   AU        0.644562    0.467470    0.254103     0.007504
AU772   AU        0.679965    0.432262    0.253191     0.007504
AU773   AU        0.679936    0.469502    0.216817     0.007504
AU774   AU        0.717517    0.434516    0.217544     0.007504
PD775   PD        0.714918    0.469219    0.251122     0.005394
PD776   PD        0.751480    0.433845    0.252048     0.005394
AU777   AU        0.749636    0.470903    0.214800     0.007504
PD778   PD        0.783813    0.433025    0.217148     0.005394
AU779   AU        0.784861    0.470900    0.251184     0.007504
PD780   PD        0.815841    0.431458    0.251407     0.005394
PD781   PD        0.038315    0.499016    0.251470     0.005394
PD782   PD        0.073558    0.501529    0.215370     0.005394
AU783   AU        0.072290    0.540158    0.250268     0.007504
AU784   AU        0.110177    0.502743    0.250164     0.007504
AU785   AU        0.109417    0.537898    0.214445     0.007504
PD786   PD        0.145816    0.499835    0.215871     0.005394
AU787   AU        0.145764    0.537097    0.250067     0.007504
PD788   PD        0.182158    0.500562    0.250706     0.005394
AU789   AU        0.179754    0.540146    0.213290     0.007504
PD790   PD        0.216229    0.503613    0.210752     0.005394
AU791   AU        0.216237    0.538931    0.251206     0.007504
AU792   AU        0.250983    0.503082    0.250067     0.007504
PD793   PD        0.253547    0.538887    0.215516     0.005394
AU794   AU        0.287288    0.500186    0.212554     0.007504
AU795   AU        0.286883    0.539771    0.252908     0.007504
AU796   AU        0.320481    0.504392    0.249484     0.007504
PD797   PD        0.323413    0.539032    0.214416     0.005394
AU798   AU        0.360901    0.503950    0.215543     0.007504
AU799   AU        0.358128    0.538013    0.252720     0.007504
PD800   PD        0.392809    0.505694    0.251965     0.005394
AU801   AU        0.396973    0.538182    0.217561     0.007504
PD802   PD        0.429158    0.502925    0.217335     0.005394
PD803   PD        0.429293    0.540187    0.253924     0.005394
PD804   PD        0.465582    0.502718    0.253413     0.005394
AU805   AU        0.463263    0.538801    0.216681     0.007504
PD806   PD        0.499717    0.506286    0.215812     0.005394
AU807   AU        0.500647    0.540869    0.250761     0.007504
AU808   AU        0.535788    0.505039    0.250318     0.007504
AU809   AU        0.535705    0.540339    0.215018     0.007504
AU810   AU        0.570790    0.507749    0.214588     0.007504
PD811   PD        0.571277    0.544002    0.250703     0.005394
AU812   AU        0.606201    0.503960    0.251752     0.007504
PD813   PD        0.607291    0.540625    0.216937     0.005394
AU814   AU        0.643989    0.504323    0.219788     0.007504
PD815   PD        0.642324    0.542460    0.253027     0.005394
AU816   AU        0.680050    0.503391    0.252715     0.007504
PD817   PD        0.677254    0.541106    0.216972     0.005394
PD818   PD        0.714291    0.507024    0.217110     0.005394
AU819   AU        0.710204    0.541377    0.251727     0.007504
PD820   PD        0.748430    0.505121    0.251990     0.005394
AU821   AU        0.747662    0.541960    0.217058     0.007504
AU822   AU        0.784700    0.507051    0.214908     0.007504
PD823   PD        0.784784    0.538601    0.251880     0.005394
PD824   PD        0.821198    0.502394    0.250972     0.005394
PD825   PD        0.076111    0.608129    0.251325     0.005394
PD826   PD        0.111446    0.574901    0.250423     0.005394
PD827   PD        0.111701    0.612820    0.215676     0.005394
PD828   PD        0.146660    0.576849    0.215326     0.005394
PD829   PD        0.145872    0.610284    0.251068     0.005394
PD830   PD        0.180076    0.574737    0.252458     0.005394
AU831   AU        0.182337    0.610609    0.216866     0.007504
AU832   AU        0.216885    0.575572    0.216143     0.007504
AU833   AU        0.215780    0.605932    0.253906     0.007504
AU834   AU        0.251300    0.572027    0.252138     0.007504
AU835   AU        0.251201    0.608757    0.216644     0.007504
AU836   AU        0.287340    0.573128    0.217114     0.007504
AU837   AU        0.286926    0.606827    0.253002     0.007504
AU838   AU        0.325898    0.574726    0.252165     0.007504
PD839   PD        0.323884    0.609794    0.217225     0.005394
PD840   PD        0.357015    0.576140    0.217705     0.005394
PD841   PD        0.360140    0.610358    0.252452     0.005394
AU842   AU        0.392983    0.572216    0.254618     0.007504
AU843   AU        0.391056    0.609856    0.216782     0.007504
PD844   PD        0.430578    0.574984    0.217294     0.005394
AU845   AU        0.426706    0.612194    0.249618     0.007504
AU846   AU        0.465297    0.575510    0.252114     0.007504
AU847   AU        0.464477    0.611435    0.216109     0.007504
AU848   AU        0.500573    0.574801    0.215154     0.007504
PD849   PD        0.502423    0.609256    0.248134     0.005394
AU850   AU        0.535846    0.575514    0.251078     0.007504
PD851   PD        0.536694    0.611621    0.214939     0.005394
PD852   PD        0.571607    0.575665    0.214726     0.005394
AU853   AU        0.571954    0.610903    0.250510     0.007504
PD854   PD        0.605596    0.574753    0.249510     0.005394
AU855   AU        0.606995    0.611622    0.217501     0.007504
PD856   PD        0.642697    0.574762    0.216412     0.005394
PD857   PD        0.641800    0.610347    0.253239     0.005394
AU858   AU        0.679073    0.577709    0.254112     0.007504
PD859   PD        0.676901    0.613374    0.220917     0.005394
AU860   AU        0.714525    0.578512    0.216638     0.007504
AU861   AU        0.714825    0.613999    0.250456     0.007504
PD862   PD        0.750105    0.577359    0.252373     0.005394
PD863   PD        0.748827    0.615031    0.215529     0.005394
PD864   PD        0.783618    0.613469    0.251837     0.005394
PD865   PD        0.108034    0.644195    0.252692     0.005394
PD866   PD        0.147830    0.644833    0.216435     0.005394
PD867   PD        0.147648    0.679190    0.253483     0.005394
AU868   AU        0.183318    0.645650    0.250766     0.007504
AU869   AU        0.182397    0.681720    0.217409     0.007504
PD870   PD        0.217239    0.644585    0.216938     0.005394
PD871   PD        0.218533    0.681691    0.253184     0.005394
AU872   AU        0.249232    0.643250    0.255040     0.007504
AU873   AU        0.250938    0.681186    0.216942     0.007504
PD874   PD        0.290459    0.644492    0.218697     0.005394
PD875   PD        0.283903    0.679220    0.252907     0.005394
PD876   PD        0.322642    0.643738    0.252580     0.005394
AU877   AU        0.321883    0.681079    0.217483     0.007504
AU878   AU        0.357363    0.645418    0.217427     0.007504
AU879   AU        0.357518    0.679731    0.251643     0.007504
PD880   PD        0.394984    0.646325    0.253167     0.005394
AU881   AU        0.393289    0.682668    0.217070     0.007504
PD882   PD        0.430485    0.646868    0.215962     0.005394
AU883   AU        0.428540    0.683212    0.251915     0.007504
AU884   AU        0.464844    0.645001    0.252101     0.007504
AU885   AU        0.463726    0.681434    0.215798     0.007504
AU886   AU        0.500933    0.646773    0.215979     0.007504
AU887   AU        0.502299    0.680095    0.252028     0.007504
PD888   PD        0.537864    0.644786    0.249791     0.005394
PD889   PD        0.535972    0.681628    0.215809     0.005394
AU890   AU        0.571865    0.648493    0.215022     0.007504
PD891   PD        0.571956    0.680678    0.253523     0.005394
AU892   AU        0.607688    0.646449    0.253008     0.007504
PD893   PD        0.607068    0.681743    0.217859     0.005394
PD894   PD        0.641708    0.646163    0.220990     0.005394
PD895   PD        0.641809    0.683407    0.254573     0.005394
AU896   AU        0.677802    0.650949    0.252573     0.007504
AU897   AU        0.676098    0.684190    0.214904     0.007504
AU898   AU        0.712515    0.650485    0.217616     0.007504
AU899   AU        0.714521    0.684826    0.254335     0.007504
PD900   PD        0.749524    0.649132    0.253443     0.005394
PD901   PD        0.182219    0.717599    0.250754     0.005394
AU902   AU        0.216279    0.717133    0.215070     0.007504
AU903   AU        0.215658    0.753552    0.254116     0.007504
PD904   PD        0.252883    0.717914    0.254480     0.005394
AU905   AU        0.252249    0.754569    0.218454     0.007504
PD906   PD        0.285394    0.716368    0.218054     0.005394
PD907   PD        0.286979    0.752384    0.254506     0.005394
AU908   AU        0.320559    0.716929    0.252892     0.007504
PD909   PD        0.318765    0.754226    0.218356     0.005394
PD910   PD        0.356916    0.718064    0.217753     0.005394
AU911   AU        0.357664    0.755098    0.252057     0.007504
PD912   PD        0.391516    0.717506    0.251334     0.005394
AU913   AU        0.393028    0.754230    0.217432     0.007504
PD914   PD        0.429804    0.717952    0.216008     0.005394
PD915   PD        0.426356    0.751225    0.252755     0.005394
AU916   AU        0.462365    0.717077    0.252618     0.007504
PD917   PD        0.465827    0.751757    0.215381     0.005394
AU918   AU        0.500093    0.714777    0.216981     0.007504
PD919   PD        0.503310    0.753055    0.252990     0.005394
PD920   PD        0.537410    0.714868    0.252483     0.005394
PD921   PD        0.535537    0.750464    0.218864     0.005394
PD922   PD        0.570667    0.714959    0.217967     0.005394
PD923   PD        0.567875    0.751945    0.253650     0.005394
AU924   AU        0.605417    0.716382    0.251920     0.007504
PD925   PD        0.602898    0.752995    0.218401     0.005394
PD926   PD        0.639957    0.718032    0.217902     0.005394
AU927   AU        0.642075    0.756222    0.254085     0.007504
AU928   AU        0.678104    0.718830    0.250686     0.007504
PD929   PD        0.250584    0.787521    0.255806     0.005394
AU930   AU        0.320433    0.788747    0.253329     0.007504
AU931   AU        0.356334    0.792246    0.217436     0.007504
PD932   PD        0.359026    0.823890    0.258351     0.005394
AU933   AU        0.393285    0.789627    0.251185     0.007504
AU934   AU        0.428964    0.788718    0.218485     0.007504
AU935   AU        0.430674    0.824895    0.254397     0.007504
AU936   AU        0.464120    0.784485    0.252719     0.007504
PD937   PD        0.499456    0.785051    0.217730     0.005394
PD938   PD        0.498436    0.822752    0.252029     0.005394
PD939   PD        0.534157    0.787918    0.252716     0.005394
PD940   PD        0.602821    0.788332    0.251162     0.005394
PD941   PD        0.285046    0.040184    0.321087     0.005394
AU942   AU        0.322049    0.040623    0.286120     0.007504
PD943   PD        0.358715    0.039066    0.319816     0.005394
PD944   PD        0.394509    0.041212    0.286434     0.005394
AU945   AU        0.431277    0.039227    0.320711     0.007504
PD946   PD        0.466773    0.040830    0.283246     0.005394
AU947   AU        0.500781    0.040093    0.320113     0.007504
PD948   PD        0.538607    0.040892    0.285445     0.005394
PD949   PD        0.573215    0.040640    0.322274     0.005394
PD950   PD        0.183221    0.112936    0.285240     0.005394
PD951   PD        0.217596    0.113283    0.321403     0.005394
PD952   PD        0.250616    0.075538    0.317685     0.005394
PD953   PD        0.254683    0.112558    0.285809     0.005394
PD954   PD        0.287549    0.077549    0.285624     0.005394
AU955   AU        0.287102    0.111225    0.323947     0.007504
AU956   AU        0.322699    0.075106    0.319971     0.007504
AU957   AU        0.322756    0.109643    0.285286     0.007504
PD958   PD        0.361839    0.074478    0.285227     0.005394
PD959   PD        0.358865    0.110122    0.320586     0.005394
PD960   PD        0.395194    0.075130    0.319557     0.005394
PD961   PD        0.396099    0.111361    0.284240     0.005394
AU962   AU        0.431041    0.078268    0.284832     0.007504
AU963   AU        0.430151    0.112961    0.319493     0.007504
AU964   AU        0.466522    0.077359    0.319328     0.007504
AU965   AU        0.467496    0.114196    0.283286     0.007504
AU966   AU        0.500567    0.078247    0.283305     0.007504
AU967   AU        0.502801    0.111782    0.320105     0.007504
AU968   AU        0.537489    0.075735    0.320468     0.007504
AU969   AU        0.538246    0.111430    0.283818     0.007504
AU970   AU        0.574484    0.075138    0.285004     0.007504
PD971   PD        0.572464    0.111613    0.320486     0.005394
PD972   PD        0.609558    0.075943    0.321237     0.005394
AU973   AU        0.611067    0.110486    0.285465     0.007504
PD974   PD        0.647314    0.112522    0.323748     0.005394
AU975   AU        0.681464    0.106438    0.285829     0.007504
AU976   AU        0.110183    0.182762    0.283822     0.007504
PD977   PD        0.146946    0.148376    0.284165     0.005394
AU978   AU        0.146009    0.177548    0.321560     0.007504
PD979   PD        0.183465    0.146111    0.320092     0.005394
AU980   AU        0.184043    0.182497    0.286764     0.007504
AU981   AU        0.219541    0.146222    0.284775     0.007504
AU982   AU        0.218800    0.179488    0.323467     0.007504
PD983   PD        0.253312    0.146450    0.321229     0.005394
PD984   PD        0.255507    0.181755    0.287089     0.005394
AU985   AU        0.287866    0.146805    0.288203     0.007504
PD986   PD        0.292478    0.181610    0.322746     0.005394
PD987   PD        0.324514    0.146143    0.322781     0.005394
PD988   PD        0.324880    0.181855    0.283595     0.005394
AU989   AU        0.359602    0.145509    0.286870     0.007504
AU990   AU        0.359778    0.180934    0.320660     0.007504
PD991   PD        0.396049    0.146900    0.320074     0.005394
AU992   AU        0.394279    0.182707    0.286243     0.007504
PD993   PD        0.429322    0.148955    0.284289     0.005394
PD994   PD        0.429301    0.184963    0.319613     0.005394
AU995   AU        0.465019    0.147531    0.319292     0.007504
PD996   PD        0.465723    0.184238    0.284909     0.005394
AU997   AU        0.502112    0.150213    0.285221     0.007504
PD998   PD        0.500804    0.185041    0.321850     0.005394
PD999   PD        0.538114    0.147500    0.322021     0.005394
AU1000   AU        0.540317    0.180046    0.283336     0.007504
PD1001   PD        0.573533    0.145995    0.284311     0.005394
PD1002   PD        0.574260    0.181106    0.318230     0.005394
AU1003   AU        0.608518    0.146760    0.321544     0.007504
PD1004   PD        0.608162    0.182977    0.283420     0.005394
AU1005   AU        0.644142    0.145549    0.284260     0.007504
AU1006   AU        0.643647    0.181634    0.320288     0.007504
PD1007   PD        0.680527    0.146738    0.320232     0.005394
AU1008   AU        0.680673    0.181257    0.284791     0.007504
PD1009   PD        0.718244    0.146993    0.284281     0.005394
PD1010   PD        0.715198    0.183537    0.319993     0.005394
AU1011   AU        0.751140    0.183235    0.286003     0.007504
PD1012   PD        0.076357    0.252491    0.321677     0.005394
AU1013   AU        0.110761    0.215958    0.321367     0.007504
PD1014   PD        0.112815    0.253816    0.285672     0.005394
AU1015   AU        0.149037    0.216739    0.287925     0.007504
AU1016   AU        0.147462    0.251052    0.323583     0.007504
AU1017   AU        0.182121    0.216563    0.323947     0.007504
PD1018   PD        0.181710    0.251854    0.285804     0.005394
PD1019   PD        0.216003    0.217649    0.287060     0.005394
AU1020   AU        0.217792    0.252046    0.322176     0.007504
AU1021   AU        0.254489    0.215486    0.322251     0.007504
AU1022   AU        0.252653    0.251034    0.286821     0.007504
PD1023   PD        0.289630    0.218097    0.289405     0.005394
AU1024   AU        0.286756    0.252063    0.324779     0.007504
AU1025   AU        0.324672    0.216267    0.321917     0.007504
PD1026   PD        0.324285    0.253216    0.286606     0.005394
PD1027   PD        0.359832    0.218374    0.284282     0.005394
AU1028   AU        0.360146    0.252889    0.321671     0.007504
AU1029   AU        0.394759    0.217944    0.321616     0.007504
AU1030   AU        0.396353    0.254300    0.283626     0.007504
PD1031   PD        0.432378    0.219858    0.283925     0.005394
PD1032   PD        0.431498    0.254310    0.320868     0.005394
PD1033   PD        0.465210    0.218369    0.320898     0.005394
PD1034   PD        0.466318    0.255126    0.284496     0.005394
AU1035   AU        0.498594    0.220805    0.286920     0.007504
AU1036   AU        0.502055    0.254183    0.320857     0.007504
AU1037   AU        0.537407    0.215705    0.318964     0.007504
AU1038   AU        0.536344    0.251369    0.286033     0.007504
PD1039   PD        0.571400    0.216856    0.284892     0.005394
AU1040   AU        0.573098    0.254258    0.320840     0.007504
PD1041   PD        0.607636    0.218919    0.320633     0.005394
AU1042   AU        0.605579    0.253257    0.282072     0.007504
PD1043   PD        0.644625    0.214747    0.284724     0.005394
AU1044   AU        0.639721    0.253324    0.317440     0.007504
AU1045   AU        0.680204    0.216206    0.319556     0.007504
AU1046   AU        0.679137    0.252233    0.283660     0.007504
AU1047   AU        0.715093    0.218463    0.284753     0.007504
PD1048   PD        0.715722    0.253474    0.321208     0.005394
PD1049   PD        0.752507    0.216522    0.320300     0.005394
PD1050   PD        0.752236    0.252498    0.287675     0.005394
PD1051   PD        0.786240    0.255056    0.323266     0.005394
PD1052   PD        0.040136    0.285850    0.319020     0.005394
AU1053   AU        0.037372    0.323226    0.284610     0.007504
AU1054   AU        0.075182    0.287677    0.288196     0.007504
AU1055   AU        0.075577    0.322406    0.322837     0.007504
AU1056   AU        0.113519    0.286373    0.321605     0.007504
PD1057   PD        0.110197    0.323219    0.286786     0.005394
PD1058   PD        0.147365    0.288881    0.285843     0.005394
AU1059   AU        0.146097    0.324037    0.320915     0.007504
PD1060   PD        0.182734    0.287978    0.321493     0.005394
AU1061   AU        0.183268    0.322873    0.287952     0.007504
AU1062   AU        0.220585    0.287310    0.287976     0.007504
AU1063   AU        0.218478    0.323390    0.323221     0.007504
PD1064   PD        0.253621    0.289139    0.323910     0.005394
AU1065   AU        0.252958    0.325938    0.286506     0.007504
PD1066   PD        0.286986    0.286825    0.288834     0.005394
AU1067   AU        0.286148    0.323237    0.323019     0.007504
AU1068   AU        0.322806    0.284259    0.323258     0.007504
AU1069   AU        0.319950    0.324432    0.289180     0.007504
AU1070   AU        0.359962    0.287471    0.287029     0.007504
PD1071   PD        0.356783    0.324298    0.319413     0.005394
AU1072   AU        0.395350    0.289458    0.320963     0.007504
PD1073   PD        0.395403    0.324337    0.284336     0.005394
PD1074   PD        0.431718    0.289789    0.284674     0.005394
AU1075   AU        0.429578    0.324955    0.321012     0.007504
AU1076   AU        0.466253    0.291911    0.321533     0.007504
AU1077   AU        0.465642    0.325249    0.285269     0.007504
AU1078   AU        0.503126    0.288799    0.286172     0.007504
AU1079   AU        0.500727    0.325173    0.320890     0.007504
AU1080   AU        0.538113    0.291779    0.318842     0.007504
PD1081   PD        0.536786    0.327179    0.285309     0.005394
AU1082   AU        0.575387    0.291299    0.285408     0.007504
PD1083   PD        0.571847    0.327618    0.321163     0.005394
AU1084   AU        0.607911    0.289808    0.321294     0.007504
AU1085   AU        0.608836    0.324652    0.284187     0.007504
PD1086   PD        0.643431    0.285541    0.283803     0.005394
PD1087   PD        0.641972    0.322195    0.320457     0.005394
AU1088   AU        0.676472    0.289503    0.320383     0.007504
AU1089   AU        0.677795    0.325639    0.284815     0.007504
PD1090   PD        0.715619    0.289505    0.287256     0.005394
AU1091   AU        0.714311    0.325084    0.318926     0.007504
AU1092   AU        0.753909    0.288987    0.321337     0.007504
PD1093   PD        0.755532    0.326364    0.284774     0.005394
AU1094   AU        0.790421    0.289605    0.285940     0.007504
AU1095   AU        0.787618    0.327636    0.323297     0.007504
PD1096   PD        0.821194    0.290246    0.324085     0.005394
PD1097   PD        0.821294    0.326841    0.287300     0.005394
PD1098   PD        0.038558    0.361583    0.322436     0.005394
PD1099   PD        0.040309    0.396333    0.283080     0.005394
AU1100   AU        0.072536    0.358609    0.288220     0.007504
PD1101   PD        0.076286    0.395589    0.317700     0.005394
PD1102   PD        0.109379    0.359865    0.320682     0.005394
AU1103   AU        0.111097    0.397253    0.284790     0.007504
AU1104   AU        0.146299    0.359262    0.286015     0.007504
AU1105   AU        0.143752    0.395284    0.322811     0.007504
PD1106   PD        0.180490    0.361092    0.322169     0.005394
PD1107   PD        0.180623    0.395411    0.285911     0.005394
AU1108   AU        0.215423    0.360081    0.285802     0.007504
AU1109   AU        0.218087    0.395439    0.321939     0.007504
PD1110   PD        0.251408    0.360410    0.322630     0.005394
AU1111   AU        0.251729    0.396857    0.287425     0.007504
PD1112   PD        0.287640    0.360441    0.289406     0.005394
PD1113   PD        0.286742    0.394317    0.321831     0.005394
AU1114   AU        0.321375    0.360131    0.322183     0.007504
PD1115   PD        0.323708    0.397285    0.287324     0.005394
PD1116   PD        0.358128    0.360933    0.284449     0.005394
AU1117   AU        0.358360    0.395667    0.321120     0.007504
AU1118   AU        0.392435    0.360459    0.320420     0.007504
AU1119   AU        0.393080    0.396732    0.285058     0.007504
PD1120   PD        0.431878    0.360542    0.284872     0.005394
PD1121   PD        0.428711    0.399054    0.320041     0.005394
AU1122   AU        0.465595    0.360372    0.320509     0.007504
PD1123   PD        0.466396    0.396713    0.288095     0.005394
AU1124   AU        0.500870    0.360840    0.284367     0.007504
AU1125   AU        0.500169    0.395525    0.321477     0.007504
PD1126   PD        0.536272    0.361447    0.320870     0.005394
PD1127   PD        0.536587    0.396509    0.283773     0.005394
PD1128   PD        0.571516    0.360920    0.285229     0.005394
AU1129   AU        0.572098    0.397114    0.319075     0.007504
PD1130   PD        0.605625    0.359491    0.322779     0.005394
PD1131   PD        0.607038    0.396593    0.285340     0.005394
AU1132   AU        0.643258    0.361282    0.287014     0.007504
PD1133   PD        0.644072    0.393256    0.323018     0.005394
AU1134   AU        0.679022    0.359929    0.322036     0.007504
AU1135   AU        0.679470    0.396379    0.287187     0.007504
AU1136   AU        0.716194    0.361044    0.285134     0.007504
PD1137   PD        0.713525    0.396742    0.318483     0.005394
AU1138   AU        0.749292    0.361329    0.322583     0.007504
AU1139   AU        0.751055    0.396830    0.287264     0.007504
PD1140   PD        0.786314    0.363130    0.286541     0.005394
PD1141   PD        0.783986    0.397812    0.323933     0.005394
PD1142   PD        0.820827    0.363760    0.320657     0.005394
PD1143   PD        0.817634    0.398164    0.289059     0.005394
PD1144   PD        0.040914    0.430179    0.319792     0.005394
PD1145   PD        0.039988    0.465728    0.286091     0.005394
PD1146   PD        0.074951    0.432127    0.284224     0.005394
PD1147   PD        0.074922    0.467333    0.319483     0.005394
AU1148   AU        0.108924    0.429740    0.322408     0.007504
PD1149   PD        0.111051    0.465875    0.288172     0.005394
PD1150   PD        0.145640    0.430226    0.285516     0.005394
AU1151   AU        0.146017    0.466330    0.323312     0.007504
AU1152   AU        0.183429    0.432698    0.321612     0.007504
PD1153   PD        0.181117    0.466347    0.285979     0.005394
PD1154   PD        0.216705    0.432919    0.285155     0.005394
AU1155   AU        0.216404    0.467030    0.321244     0.007504
AU1156   AU        0.251682    0.430289    0.321460     0.007504
AU1157   AU        0.252823    0.467247    0.286276     0.007504
PD1158   PD        0.287543    0.431903    0.289573     0.005394
PD1159   PD        0.286777    0.465262    0.323576     0.005394
AU1160   AU        0.323073    0.431708    0.322308     0.007504
PD1161   PD        0.321868    0.467448    0.288117     0.005394
PD1162   PD        0.358966    0.432717    0.285540     0.005394
PD1163   PD        0.359739    0.466681    0.322773     0.005394
PD1164   PD        0.393791    0.432442    0.321475     0.005394
PD1165   PD        0.392536    0.467466    0.289367     0.005394
AU1166   AU        0.431080    0.432903    0.288018     0.007504
PD1167   PD        0.429357    0.469187    0.323509     0.005394
PD1168   PD        0.465848    0.430826    0.321728     0.005394
AU1169   AU        0.465067    0.468182    0.287300     0.007504
PD1170   PD        0.499948    0.431723    0.285823     0.005394
PD1171   PD        0.501257    0.466617    0.322610     0.005394
AU1172   AU        0.536427    0.432364    0.324064     0.007504
AU1173   AU        0.535443    0.465717    0.287687     0.007504
AU1174   AU        0.572046    0.431973    0.285351     0.007504
AU1175   AU        0.571315    0.465805    0.322395     0.007504
AU1176   AU        0.609400    0.433357    0.322905     0.007504
PD1177   PD        0.606012    0.468120    0.287127     0.005394
PD1178   PD        0.643999    0.433125    0.289477     0.005394
AU1179   AU        0.641898    0.470012    0.320730     0.007504
PD1180   PD        0.679648    0.434357    0.323575     0.005394
PD1181   PD        0.678731    0.467314    0.287578     0.005394
AU1182   AU        0.717342    0.433295    0.287715     0.007504
AU1183   AU        0.714851    0.466315    0.324629     0.007504
PD1184   PD        0.751538    0.432614    0.324275     0.005394
PD1185   PD        0.750030    0.468146    0.287189     0.005394
PD1186   PD        0.782838    0.435100    0.288536     0.005394
PD1187   PD        0.784601    0.469955    0.322881     0.005394
AU1188   AU        0.822542    0.433903    0.323750     0.007504
AU1189   AU        0.821323    0.466295    0.283787     0.007504
PD1190   PD        0.039407    0.502167    0.319520     0.005394
AU1191   AU        0.035702    0.538862    0.284185     0.007504
PD1192   PD        0.074259    0.503340    0.284934     0.005394
PD1193   PD        0.074720    0.537572    0.320951     0.005394
AU1194   AU        0.107604    0.503254    0.322101     0.007504
AU1195   AU        0.109504    0.540086    0.284801     0.007504
AU1196   AU        0.145578    0.503194    0.286945     0.007504
PD1197   PD        0.143872    0.535170    0.323993     0.005394
PD1198   PD        0.182560    0.501568    0.320672     0.005394
AU1199   AU        0.180012    0.536428    0.286583     0.007504
PD1200   PD        0.216828    0.503513    0.286459     0.005394
AU1201   AU        0.215201    0.537746    0.322014     0.007504
PD1202   PD        0.253082    0.502917    0.320703     0.005394
PD1203   PD        0.254444    0.538259    0.287952     0.005394
AU1204   AU        0.289064    0.500987    0.288218     0.007504
AU1205   AU        0.288215    0.539650    0.323493     0.007504
AU1206   AU        0.320860    0.502575    0.323342     0.007504
AU1207   AU        0.322275    0.540141    0.287377     0.007504
AU1208   AU        0.357471    0.504232    0.286730     0.007504
PD1209   PD        0.355556    0.538744    0.323452     0.005394
AU1210   AU        0.393369    0.501635    0.323091     0.007504
AU1211   AU        0.391531    0.538175    0.288660     0.007504
AU1212   AU        0.428829    0.503455    0.288605     0.007504
PD1213   PD        0.427128    0.538432    0.325431     0.005394
PD1214   PD        0.463180    0.502785    0.325163     0.005394
AU1215   AU        0.464138    0.539967    0.289138     0.007504
AU1216   AU        0.501046    0.503961    0.287865     0.007504
AU1217   AU        0.501379    0.539724    0.323248     0.007504
AU1218   AU        0.537003    0.502546    0.321906     0.007504
AU1219   AU        0.535586    0.539833    0.285519     0.007504
PD1220   PD        0.569111    0.503772    0.287675     0.005394
AU1221   AU        0.570774    0.540802    0.323376     0.007504
PD1222   PD        0.603420    0.503654    0.321447     0.005394
PD1223   PD        0.602993    0.540080    0.287375     0.005394
PD1224   PD        0.641331    0.505359    0.285555     0.005394
AU1225   AU        0.641728    0.538594    0.322191     0.007504
AU1226   AU        0.679029    0.503614    0.321874     0.007504
AU1227   AU        0.678136    0.539790    0.287048     0.007504
AU1228   AU        0.714204    0.504778    0.286527     0.007504
PD1229   PD        0.715303    0.537588    0.321835     0.005394
AU1230   AU        0.750354    0.504918    0.324181     0.007504
AU1231   AU        0.747990    0.541119    0.286438     0.007504
PD1232   PD        0.783889    0.505087    0.285954     0.005394
PD1233   PD        0.785002    0.539708    0.322140     0.005394
AU1234   AU        0.822016    0.502136    0.319443     0.007504
AU1235   AU        0.822110    0.540348    0.284848     0.007504
AU1236   AU        0.035401    0.573879    0.320084     0.007504
PD1237   PD        0.073619    0.573800    0.285932     0.005394
AU1238   AU        0.073763    0.609649    0.323671     0.007504
PD1239   PD        0.109520    0.572697    0.321603     0.005394
PD1240   PD        0.109009    0.608854    0.285099     0.005394
AU1241   AU        0.144849    0.575801    0.285802     0.007504
AU1242   AU        0.143819    0.606170    0.324207     0.007504
PD1243   PD        0.181545    0.570225    0.323876     0.005394
AU1244   AU        0.180250    0.609914    0.288343     0.007504
PD1245   PD        0.214650    0.573455    0.289235     0.005394
AU1246   AU        0.216755    0.610216    0.323653     0.007504
AU1247   AU        0.251123    0.574520    0.323658     0.007504
AU1248   AU        0.250776    0.608274    0.287795     0.007504
AU1249   AU        0.286731    0.574443    0.289411     0.007504
PD1250   PD        0.287899    0.613081    0.319870     0.005394
AU1251   AU        0.321945    0.576664    0.321192     0.007504
AU1252   AU        0.323316    0.611688    0.287213     0.007504
PD1253   PD        0.357581    0.575908    0.286696     0.005394
PD1254   PD        0.356320    0.609571    0.321197     0.005394
AU1255   AU        0.391256    0.571732    0.324031     0.007504
PD1256   PD        0.393417    0.608944    0.287295     0.005394
AU1257   AU        0.428700    0.574270    0.287419     0.007504
AU1258   AU        0.428519    0.608530    0.323311     0.007504
PD1259   PD        0.464663    0.576270    0.323558     0.005394
AU1260   AU        0.461914    0.611166    0.287941     0.007504
AU1261   AU        0.502109    0.575456    0.288806     0.007504
PD1262   PD        0.497571    0.611100    0.320960     0.005394
PD1263   PD        0.537069    0.573785    0.323166     0.005394
AU1264   AU        0.536754    0.611563    0.287048     0.007504
AU1265   AU        0.571975    0.577283    0.288569     0.007504
PD1266   PD        0.570784    0.613688    0.326217     0.005394
AU1267   AU        0.605268    0.576519    0.323953     0.007504
PD1268   PD        0.607446    0.611286    0.286200     0.005394
PD1269   PD        0.641689    0.574779    0.288224     0.005394
AU1270   AU        0.644255    0.609910    0.325732     0.007504
AU1271   AU        0.678170    0.574676    0.322365     0.007504
AU1272   AU        0.677291    0.609811    0.289643     0.007504
PD1273   PD        0.716467    0.576943    0.287273     0.005394
AU1274   AU        0.713600    0.610109    0.322725     0.007504
PD1275   PD        0.747717    0.575869    0.321392     0.005394
AU1276   AU        0.747467    0.612195    0.287355     0.007504
AU1277   AU        0.785182    0.574245    0.288479     0.007504
PD1278   PD        0.784394    0.612057    0.325673     0.005394
PD1279   PD        0.822884    0.575786    0.320027     0.005394
AU1280   AU        0.109831    0.643971    0.321386     0.007504
AU1281   AU        0.110570    0.683042    0.284692     0.007504
AU1282   AU        0.146095    0.643241    0.287659     0.007504
AU1283   AU        0.144807    0.680944    0.322350     0.007504
PD1284   PD        0.181018    0.644715    0.325326     0.005394
PD1285   PD        0.179575    0.680058    0.288978     0.005394
PD1286   PD        0.215823    0.647828    0.286723     0.005394
PD1287   PD        0.215148    0.679237    0.322115     0.005394
PD1288   PD        0.251084    0.645934    0.320719     0.005394
PD1289   PD        0.252272    0.682001    0.289042     0.005394
PD1290   PD        0.288199    0.645403    0.287366     0.005394
PD1291   PD        0.287030    0.678943    0.326059     0.005394
AU1292   AU        0.321951    0.647487    0.321767     0.007504
AU1293   AU        0.319605    0.682333    0.285861     0.007504
PD1294   PD        0.358615    0.645633    0.286552     0.005394
AU1295   AU        0.358450    0.681023    0.322316     0.007504
AU1296   AU        0.392780    0.643457    0.321860     0.007504
AU1297   AU        0.390926    0.682110    0.287056     0.007504
AU1298   AU        0.427810    0.647333    0.286965     0.007504
PD1299   PD        0.424793    0.681075    0.322032     0.005394
PD1300   PD        0.462458    0.648075    0.321990     0.005394
PD1301   PD        0.464345    0.680093    0.287578     0.005394
AU1302   AU        0.498134    0.646413    0.285620     0.007504
PD1303   PD        0.497247    0.680111    0.321714     0.005394
AU1304   AU        0.533835    0.644447    0.324089     0.007504
AU1305   AU        0.537470    0.682035    0.289959     0.007504
AU1306   AU        0.572089    0.644118    0.288487     0.007504
AU1307   AU        0.571278    0.679163    0.324440     0.007504
PD1308   PD        0.609905    0.644033    0.321979     0.005394
AU1309   AU        0.606943    0.680861    0.288520     0.007504
AU1310   AU        0.644124    0.646458    0.289167     0.007504
AU1311   AU        0.643666    0.681537    0.326104     0.007504
PD1312   PD        0.678352    0.647404    0.325690     0.005394
PD1313   PD        0.678460    0.683358    0.288675     0.005394
PD1314   PD        0.711147    0.644508    0.289284     0.005394
PD1315   PD        0.712477    0.683536    0.323838     0.005394
AU1316   AU        0.750580    0.648914    0.325229     0.007504
PD1317   PD        0.750396    0.682664    0.288752     0.005394
PD1318   PD        0.146581    0.716833    0.285812     0.005394
AU1319   AU        0.181219    0.715490    0.324094     0.007504
PD1320   PD        0.180991    0.749340    0.288267     0.005394
PD1321   PD        0.216145    0.714862    0.289939     0.005394
PD1322   PD        0.216222    0.752469    0.325804     0.005394
PD1323   PD        0.249460    0.714768    0.323561     0.005394
AU1324   AU        0.251757    0.752694    0.290697     0.007504
AU1325   AU        0.285956    0.717926    0.289055     0.007504
AU1326   AU        0.287992    0.752152    0.325832     0.007504
PD1327   PD        0.323393    0.715144    0.325275     0.005394
AU1328   AU        0.321863    0.751096    0.289406     0.007504
AU1329   AU        0.357687    0.716253    0.286897     0.007504
AU1330   AU        0.355070    0.752381    0.324864     0.007504
AU1331   AU        0.389578    0.718793    0.322600     0.007504
PD1332   PD        0.390509    0.751148    0.288950     0.005394
AU1333   AU        0.428301    0.715168    0.287815     0.007504
AU1334   AU        0.426590    0.752816    0.321586     0.007504
AU1335   AU        0.463420    0.716792    0.321760     0.007504
AU1336   AU        0.464203    0.749858    0.283786     0.007504
PD1337   PD        0.501016    0.718560    0.285387     0.005394
PD1338   PD        0.501286    0.749272    0.322826     0.005394
PD1339   PD        0.532592    0.716130    0.325563     0.005394
PD1340   PD        0.535348    0.750812    0.289330     0.005394
PD1341   PD        0.569680    0.717018    0.288681     0.005394
AU1342   AU        0.568718    0.751201    0.324079     0.007504
PD1343   PD        0.604447    0.715590    0.322091     0.005394
AU1344   AU        0.604343    0.750665    0.288110     0.007504
PD1345   PD        0.641410    0.718166    0.287714     0.005394
PD1346   PD        0.639127    0.750062    0.323436     0.005394
PD1347   PD        0.678303    0.717531    0.323512     0.005394
PD1348   PD        0.674250    0.752913    0.290496     0.005394
AU1349   AU        0.712570    0.721981    0.289317     0.007504
AU1350   AU        0.251246    0.789746    0.322573     0.007504
PD1351   PD        0.286868    0.786737    0.289559     0.005394
AU1352   AU        0.284713    0.824672    0.325894     0.007504
PD1353   PD        0.321752    0.789073    0.325349     0.005394
AU1354   AU        0.319817    0.824687    0.288868     0.007504
PD1355   PD        0.355915    0.787625    0.288110     0.005394
AU1356   AU        0.359036    0.823875    0.322133     0.007504
AU1357   AU        0.390889    0.785607    0.323858     0.007504
PD1358   PD        0.394745    0.820043    0.290263     0.005394
PD1359   PD        0.427469    0.784940    0.286430     0.005394
AU1360   AU        0.429920    0.823210    0.323994     0.007504
AU1361   AU        0.463448    0.785773    0.323125     0.007504
PD1362   PD        0.465671    0.822047    0.289226     0.005394
AU1363   AU        0.500337    0.787320    0.290014     0.007504
PD1364   PD        0.497258    0.821489    0.327260     0.005394
AU1365   AU        0.535344    0.787106    0.324579     0.007504
PD1366   PD        0.534855    0.821474    0.286895     0.005394
PD1367   PD        0.568856    0.785962    0.288709     0.005394
PD1368   PD        0.570257    0.822143    0.325551     0.005394
AU1369   AU        0.606711    0.786004    0.322949     0.007504
PD1370   PD        0.252279    0.042219    0.356042     0.005394
AU1371   AU        0.287103    0.038890    0.393082     0.007504
AU1372   AU        0.322167    0.042020    0.355698     0.007504
AU1373   AU        0.358944    0.040657    0.388142     0.007504
PD1374   PD        0.395220    0.004977    0.390029     0.005394
PD1375   PD        0.393256    0.039915    0.354381     0.005394
AU1376   AU        0.430737    0.000714    0.355210     0.007504
AU1377   AU        0.430617    0.038831    0.388812     0.007504
PD1378   PD        0.466149    0.006502    0.391345     0.005394
PD1379   PD        0.467685    0.039472    0.354796     0.005394
AU1380   AU        0.500902    0.040745    0.392443     0.007504
AU1381   AU        0.535940    0.040021    0.355871     0.007504
PD1382   PD        0.574402    0.041819    0.390641     0.005394
PD1383   PD        0.611382    0.041933    0.357028     0.005394
AU1384   AU        0.144765    0.109800    0.392647     0.007504
PD1385   PD        0.181790    0.079731    0.390830     0.005394
PD1386   PD        0.182262    0.111745    0.354197     0.005394
PD1387   PD        0.215497    0.078459    0.356827     0.005394
PD1388   PD        0.219148    0.113277    0.391970     0.005394
AU1389   AU        0.251971    0.074772    0.392452     0.007504
PD1390   PD        0.250485    0.110178    0.356049     0.005394
AU1391   AU        0.288977    0.075334    0.355620     0.007504
AU1392   AU        0.286509    0.108872    0.390401     0.007504
AU1393   AU        0.325398    0.078978    0.391765     0.007504
PD1394   PD        0.324356    0.112117    0.357456     0.005394
AU1395   AU        0.359692    0.076135    0.355308     0.007504
PD1396   PD        0.361412    0.109034    0.391521     0.005394
PD1397   PD        0.395863    0.074887    0.390606     0.005394
PD1398   PD        0.393517    0.109187    0.357529     0.005394
AU1399   AU        0.432948    0.075708    0.354882     0.007504
AU1400   AU        0.431829    0.110259    0.389994     0.007504
PD1401   PD        0.467152    0.075593    0.390294     0.005394
PD1402   PD        0.467422    0.111571    0.355628     0.005394
PD1403   PD        0.501120    0.075813    0.354932     0.005394
PD1404   PD        0.502184    0.109832    0.391075     0.005394
AU1405   AU        0.538661    0.075437    0.389628     0.007504
AU1406   AU        0.537200    0.110865    0.355665     0.007504
PD1407   PD        0.575266    0.075860    0.356774     0.005394
AU1408   AU        0.572294    0.111767    0.391813     0.007504
AU1409   AU        0.610296    0.076234    0.392641     0.007504
AU1410   AU        0.609148    0.112462    0.357687     0.007504
AU1411   AU        0.644921    0.077758    0.358010     0.007504
PD1412   PD        0.645417    0.113516    0.393894     0.005394
AU1413   AU        0.680956    0.077553    0.393549     0.007504
PD1414   PD        0.681538    0.114223    0.358788     0.005394
AU1415   AU        0.716611    0.112561    0.396204     0.007504
AU1416   AU        0.073154    0.181923    0.396351     0.007504
PD1417   PD        0.112328    0.148059    0.393874     0.005394
AU1418   AU        0.109939    0.179474    0.356920     0.007504
AU1419   AU        0.145076    0.143595    0.355524     0.007504
PD1420   PD        0.148019    0.182672    0.392666     0.005394
AU1421   AU        0.183365    0.144693    0.392004     0.007504
PD1422   PD        0.182395    0.179325    0.356973     0.005394
PD1423   PD        0.219153    0.145399    0.357654     0.005394
AU1424   AU        0.219657    0.182189    0.392193     0.007504
AU1425   AU        0.252749    0.146642    0.390987     0.007504
PD1426   PD        0.254658    0.182020    0.356535     0.005394
AU1427   AU        0.287956    0.147720    0.356604     0.007504
AU1428   AU        0.286732    0.184108    0.393081     0.007504
AU1429   AU        0.324992    0.145275    0.391870     0.007504
AU1430   AU        0.324599    0.181201    0.359196     0.007504
PD1431   PD        0.360733    0.145194    0.357598     0.005394
AU1432   AU        0.359472    0.182294    0.392295     0.007504
AU1433   AU        0.393436    0.146972    0.393873     0.007504
AU1434   AU        0.396261    0.181920    0.356373     0.007504
PD1435   PD        0.432405    0.148034    0.356563     0.005394
AU1436   AU        0.431119    0.184519    0.392515     0.007504
PD1437   PD        0.465618    0.148551    0.389786     0.005394
AU1438   AU        0.466566    0.183174    0.356812     0.007504
PD1439   PD        0.499967    0.146806    0.356224     0.005394
AU1440   AU        0.501785    0.183261    0.392165     0.007504
PD1441   PD        0.536744    0.146677    0.391978     0.005394
AU1442   AU        0.537438    0.181171    0.359299     0.007504
AU1443   AU        0.573423    0.146560    0.358342     0.007504
AU1444   AU        0.572689    0.183688    0.392892     0.007504
PD1445   PD        0.607765    0.146841    0.392483     0.005394
PD1446   PD        0.605959    0.183048    0.354707     0.005394
AU1447   AU        0.644741    0.147849    0.359602     0.007504
AU1448   AU        0.643273    0.183193    0.391162     0.007504
AU1449   AU        0.679672    0.146361    0.394081     0.007504
PD1450   PD        0.679787    0.182347    0.355042     0.005394
PD1451   PD        0.714879    0.148799    0.355147     0.005394
PD1452   PD        0.714631    0.183376    0.393431     0.005394
PD1453   PD        0.748699    0.149021    0.393114     0.005394
PD1454   PD        0.749422    0.181941    0.354984     0.005394
PD1455   PD        0.782168    0.183659    0.390940     0.005394
AU1456   AU        0.037642    0.253144    0.353959     0.007504
PD1457   PD        0.077555    0.217525    0.357477     0.005394
AU1458   AU        0.074327    0.253748    0.392854     0.007504
AU1459   AU        0.112341    0.215618    0.391995     0.007504
AU1460   AU        0.111801    0.252318    0.358799     0.007504
PD1461   PD        0.146504    0.214993    0.355790     0.005394
PD1462   PD        0.146421    0.251760    0.391461     0.005394
AU1463   AU        0.182704    0.216489    0.392136     0.007504
AU1464   AU        0.181994    0.252274    0.357814     0.007504
PD1465   PD        0.216618    0.215413    0.356191     0.005394
PD1466   PD        0.216390    0.253912    0.391255     0.005394
PD1467   PD        0.252306    0.217315    0.391641     0.005394
AU1468   AU        0.252052    0.253291    0.356506     0.007504
AU1469   AU        0.288843    0.217201    0.360266     0.007504
PD1470   PD        0.287747    0.252895    0.393910     0.005394
PD1471   PD        0.325481    0.216971    0.393222     0.005394
AU1472   AU        0.322210    0.250878    0.357784     0.007504
PD1473   PD        0.359779    0.217276    0.357387     0.005394
AU1474   AU        0.358983    0.252646    0.393413     0.007504
AU1475   AU        0.394033    0.218249    0.391857     0.007504
PD1476   PD        0.395583    0.253439    0.357745     0.005394
AU1477   AU        0.430188    0.219152    0.356045     0.007504
AU1478   AU        0.430233    0.253225    0.390829     0.007504
PD1479   PD        0.466702    0.219557    0.393183     0.005394
PD1480   PD        0.467789    0.254876    0.357463     0.005394
AU1481   AU        0.502108    0.219467    0.356027     0.007504
AU1482   AU        0.502077    0.256110    0.392907     0.007504
AU1483   AU        0.536032    0.219267    0.393489     0.007504
AU1484   AU        0.538298    0.253820    0.356454     0.007504
AU1485   AU        0.573343    0.216944    0.356846     0.007504
AU1486   AU        0.572460    0.254569    0.391851     0.007504
AU1487   AU        0.609992    0.216926    0.391692     0.007504
AU1488   AU        0.607622    0.255279    0.356950     0.007504
AU1489   AU        0.645426    0.217038    0.355857     0.007504
AU1490   AU        0.644259    0.254510    0.393859     0.007504
PD1491   PD        0.678942    0.215697    0.392683     0.005394
AU1492   AU        0.680607    0.253503    0.355724     0.007504
AU1493   AU        0.714193    0.220025    0.356377     0.007504
AU1494   AU        0.712706    0.252902    0.393129     0.007504
PD1495   PD        0.748091    0.216878    0.391606     0.005394
AU1496   AU        0.750481    0.254073    0.356887     0.007504
PD1497   PD        0.785762    0.219388    0.356121     0.005394
AU1498   AU        0.783973    0.251585    0.392348     0.007504
AU1499   AU        0.822061    0.253645    0.356058     0.007504
PD1500   PD        0.040018    0.287697    0.392177     0.005394
PD1501   PD        0.039647    0.322856    0.357731     0.005394
PD1502   PD        0.076879    0.285662    0.357496     0.005394
PD1503   PD        0.074317    0.325032    0.393816     0.005394
PD1504   PD        0.109137    0.289908    0.390493     0.005394
PD1505   PD        0.109818    0.323938    0.356314     0.005394
AU1506   AU        0.146242    0.288860    0.357456     0.007504
AU1507   AU        0.147551    0.326004    0.390852     0.007504
PD1508   PD        0.181344    0.288407    0.391995     0.005394
PD1509   PD        0.182014    0.322188    0.356590     0.005394
PD1510   PD        0.216993    0.288155    0.357386     0.005394
AU1511   AU        0.215250    0.322756    0.392994     0.007504
AU1512   AU        0.253295    0.289818    0.392468     0.007504
PD1513   PD        0.251914    0.325832    0.358749     0.005394
PD1514   PD        0.286989    0.287962    0.359891     0.005394
AU1515   AU        0.288802    0.327027    0.390140     0.007504
AU1516   AU        0.323714    0.290276    0.392534     0.007504
AU1517   AU        0.325365    0.324772    0.357354     0.007504
PD1518   PD        0.359969    0.287810    0.356764     0.005394
AU1519   AU        0.360494    0.326367    0.391537     0.007504
AU1520   AU        0.396071    0.290400    0.390878     0.007504
AU1521   AU        0.391451    0.324721    0.355659     0.007504
AU1522   AU        0.429435    0.287991    0.357186     0.007504
AU1523   AU        0.430135    0.326158    0.390704     0.007504
PD1524   PD        0.466758    0.291507    0.391500     0.005394
PD1525   PD        0.465231    0.325451    0.357326     0.005394
AU1526   AU        0.503847    0.289655    0.356914     0.007504
AU1527   AU        0.498028    0.326758    0.389899     0.007504
PD1528   PD        0.536514    0.293755    0.392936     0.005394
PD1529   PD        0.538097    0.326151    0.356724     0.005394
PD1530   PD        0.572577    0.290596    0.356417     0.005394
AU1531   AU        0.572349    0.323435    0.391472     0.007504
PD1532   PD        0.609333    0.289160    0.392742     0.005394
AU1533   AU        0.607155    0.323582    0.358287     0.007504
PD1534   PD        0.642980    0.288434    0.358041     0.005394
AU1535   AU        0.643429    0.325346    0.392979     0.007504
AU1536   AU        0.681844    0.290700    0.393955     0.007504
AU1537   AU        0.679486    0.322172    0.358224     0.007504
PD1538   PD        0.714734    0.291871    0.354744     0.005394
PD1539   PD        0.716756    0.327002    0.393495     0.005394
PD1540   PD        0.746330    0.290285    0.390847     0.005394
AU1541   AU        0.750676    0.326959    0.357792     0.007504
PD1542   PD        0.786443    0.289057    0.359758     0.005394
PD1543   PD        0.782193    0.325420    0.395157     0.005394
AU1544   AU        0.822658    0.287590    0.391008     0.007504
AU1545   AU        0.823365    0.326727    0.358481     0.007504
PD1546   PD        0.003285    0.394746    0.393329     0.005394
PD1547   PD        0.038326    0.359863    0.391544     0.005394
AU1548   AU        0.038111    0.395062    0.356381     0.007504
AU1549   AU        0.074568    0.358960    0.356390     0.007504
PD1550   PD        0.074366    0.394882    0.392833     0.005394
PD1551   PD        0.109498    0.358994    0.393716     0.005394
PD1552   PD        0.110159    0.392526    0.358466     0.005394
AU1553   AU        0.143633    0.360145    0.356842     0.007504
AU1554   AU        0.144985    0.394577    0.393392     0.007504
PD1555   PD        0.180553    0.360440    0.388610     0.005394
AU1556   AU        0.180162    0.397700    0.358666     0.007504
PD1557   PD        0.217083    0.360087    0.356840     0.005394
AU1558   AU        0.215514    0.396408    0.390243     0.007504
PD1559   PD        0.252229    0.359837    0.392052     0.005394
PD1560   PD        0.252625    0.395110    0.356277     0.005394
PD1561   PD        0.288767    0.362324    0.358599     0.005394
AU1562   AU        0.287947    0.396798    0.392007     0.007504
AU1563   AU        0.322983    0.360847    0.394026     0.007504
PD1564   PD        0.324725    0.395826    0.357143     0.005394
PD1565   PD        0.357061    0.361436    0.356346     0.005394
PD1566   PD        0.359127    0.396813    0.392013     0.005394
AU1567   AU        0.393508    0.362178    0.393307     0.007504
AU1568   AU        0.392509    0.394768    0.355350     0.007504
AU1569   AU        0.430473    0.362753    0.356116     0.007504
PD1570   PD        0.431744    0.398516    0.388893     0.005394
AU1571   AU        0.463875    0.362153    0.392043     0.007504
PD1572   PD        0.464724    0.396624    0.355390     0.005394
AU1573   AU        0.499820    0.361568    0.355364     0.007504
AU1574   AU        0.501810    0.395757    0.393644     0.007504
PD1575   PD        0.537724    0.360762    0.391304     0.005394
AU1576   AU        0.538493    0.392735    0.353943     0.007504
AU1577   AU        0.574386    0.361779    0.357961     0.007504
AU1578   AU        0.572836    0.396216    0.393437     0.007504
AU1579   AU        0.606927    0.359616    0.396907     0.007504
PD1580   PD        0.608640    0.396909    0.356420     0.005394
AU1581   AU        0.642664    0.358988    0.359930     0.007504
AU1582   AU        0.643404    0.397404    0.394604     0.007504
AU1583   AU        0.678054    0.361015    0.395074     0.007504
AU1584   AU        0.677276    0.396805    0.357130     0.007504
AU1585   AU        0.712931    0.359385    0.355815     0.007504
PD1586   PD        0.714061    0.396412    0.394122     0.005394
AU1587   AU        0.750618    0.361572    0.396910     0.007504
AU1588   AU        0.748252    0.396136    0.357869     0.007504
AU1589   AU        0.785507    0.361115    0.359887     0.007504
AU1590   AU        0.785921    0.395210    0.394503     0.007504
AU1591   AU        0.819501    0.361783    0.394860     0.007504
AU1592   AU        0.820523    0.398687    0.357680     0.007504
PD1593   PD        0.856913    0.399762    0.396644     0.005394
PD1594   PD        0.003142    0.429471    0.360419     0.005394
PD1595   PD        0.002508    0.470411    0.391345     0.005394
PD1596   PD        0.037232    0.432105    0.392165     0.005394
AU1597   AU        0.038566    0.466712    0.355928     0.007504
AU1598   AU        0.073476    0.431809    0.358862     0.007504
PD1599   PD        0.071787    0.466376    0.393175     0.005394
AU1600   AU        0.108531    0.429515    0.393099     0.007504
AU1601   AU        0.108051    0.466755    0.356757     0.007504
PD1602   PD        0.144642    0.429960    0.358679     0.005394
AU1603   AU        0.145164    0.466306    0.393547     0.007504
AU1604   AU        0.181045    0.433260    0.395978     0.007504
AU1605   AU        0.180782    0.467859    0.359022     0.007504
AU1606   AU        0.216750    0.431085    0.358790     0.007504
PD1607   PD        0.217424    0.466993    0.390869     0.005394
AU1608   AU        0.252931    0.432667    0.391373     0.007504
PD1609   PD        0.254601    0.466809    0.356067     0.005394
PD1610   PD        0.287207    0.429297    0.356487     0.005394
AU1611   AU        0.289415    0.467690    0.393473     0.007504
PD1612   PD        0.323506    0.429862    0.391025     0.005394
PD1613   PD        0.324173    0.466161    0.358604     0.005394
PD1614   PD        0.358259    0.430752    0.355997     0.005394
AU1615   AU        0.358593    0.467455    0.392434     0.007504
AU1616   AU        0.395871    0.431786    0.391710     0.007504
AU1617   AU        0.393380    0.467206    0.357833     0.007504
AU1618   AU        0.427464    0.432883    0.354664     0.007504
AU1619   AU        0.430021    0.465463    0.390529     0.007504
PD1620   PD        0.465291    0.432403    0.391916     0.005394
PD1621   PD        0.465719    0.466939    0.357702     0.005394
AU1622   AU        0.500307    0.429210    0.359740     0.007504
PD1623   PD        0.502390    0.467962    0.393011     0.005394
AU1624   AU        0.536121    0.428627    0.393935     0.007504
PD1625   PD        0.535103    0.466713    0.357686     0.005394
PD1626   PD        0.570025    0.429656    0.357048     0.005394
AU1627   AU        0.570549    0.465791    0.393668     0.007504
AU1628   AU        0.606501    0.430802    0.392081     0.007504
AU1629   AU        0.603632    0.469415    0.359733     0.007504
AU1630   AU        0.643474    0.432316    0.355371     0.007504
AU1631   AU        0.641818    0.466291    0.393631     0.007504
PD1632   PD        0.680082    0.429743    0.394866     0.005394
AU1633   AU        0.676811    0.470512    0.360377     0.007504
AU1634   AU        0.714244    0.428897    0.357923     0.007504
AU1635   AU        0.714717    0.467547    0.395212     0.007504
AU1636   AU        0.750943    0.431397    0.393021     0.007504
PD1637   PD        0.749474    0.465552    0.358627     0.005394
PD1638   PD        0.785806    0.435428    0.357519     0.005394
PD1639   PD        0.779888    0.468469    0.395216     0.005394
AU1640   AU        0.818460    0.435207    0.394094     0.007504
PD1641   PD        0.816944    0.470178    0.360616     0.005394
AU1642   AU        0.860395    0.434621    0.356444     0.007504
PD1643   PD        0.853528    0.470469    0.394609     0.005394
AU1644   AU        0.038216    0.503964    0.393920     0.007504
PD1645   PD        0.039590    0.537937    0.357243     0.005394
AU1646   AU        0.072487    0.501723    0.358250     0.007504
PD1647   PD        0.072951    0.537703    0.394648     0.005394
AU1648   AU        0.109959    0.503252    0.395800     0.007504
AU1649   AU        0.110167    0.536697    0.356457     0.007504
PD1650   PD        0.142934    0.500830    0.359429     0.005394
PD1651   PD        0.144518    0.537391    0.396161     0.005394
PD1652   PD        0.180469    0.500444    0.395551     0.005394
AU1653   AU        0.179699    0.535308    0.359998     0.007504
PD1654   PD        0.218357    0.503389    0.357653     0.005394
PD1655   PD        0.215292    0.535984    0.392948     0.005394
AU1656   AU        0.253820    0.501693    0.394089     0.007504
PD1657   PD        0.250996    0.536656    0.357730     0.005394
AU1658   AU        0.284426    0.502872    0.356138     0.007504
PD1659   PD        0.287059    0.536172    0.394251     0.005394
AU1660   AU        0.322011    0.503406    0.392797     0.007504
AU1661   AU        0.320343    0.539166    0.358012     0.007504
AU1662   AU        0.358435    0.502534    0.357454     0.007504
AU1663   AU        0.357525    0.537256    0.390952     0.007504
PD1664   PD        0.393907    0.500054    0.393688     0.005394
AU1665   AU        0.393287    0.536146    0.360667     0.007504
PD1666   PD        0.431344    0.502306    0.359711     0.005394
AU1667   AU        0.429229    0.537181    0.392274     0.007504
AU1668   AU        0.463373    0.503065    0.394056     0.007504
PD1669   PD        0.465716    0.537861    0.357259     0.005394
PD1670   PD        0.501193    0.502439    0.358541     0.005394
PD1671   PD        0.499958    0.537791    0.392789     0.005394
AU1672   AU        0.535162    0.501665    0.394598     0.007504
PD1673   PD        0.536180    0.538100    0.359350     0.005394
AU1674   AU        0.569792    0.503501    0.359509     0.007504
AU1675   AU        0.571007    0.537541    0.397704     0.007504
PD1676   PD        0.604924    0.503344    0.397403     0.005394
PD1677   PD        0.604386    0.539699    0.358972     0.005394
AU1678   AU        0.637911    0.505261    0.357029     0.007504
AU1679   AU        0.641522    0.539376    0.394473     0.007504
AU1680   AU        0.676726    0.505075    0.392790     0.007504
PD1681   PD        0.678949    0.539353    0.357346     0.005394
PD1682   PD        0.712868    0.501996    0.358707     0.005394
AU1683   AU        0.714566    0.539667    0.393073     0.007504
PD1684   PD        0.750676    0.504967    0.392891     0.005394
PD1685   PD        0.750388    0.540081    0.357531     0.005394
PD1686   PD        0.784392    0.505384    0.356793     0.005394
PD1687   PD        0.783860    0.538954    0.394324     0.005394
PD1688   PD        0.816968    0.501967    0.396296     0.005394
AU1689   AU        0.823603    0.535171    0.355696     0.007504
PD1690   PD        0.036069    0.572108    0.394693     0.005394
PD1691   PD        0.040842    0.607559    0.358914     0.005394
AU1692   AU        0.074285    0.571439    0.356959     0.007504
AU1693   AU        0.072665    0.606403    0.395744     0.007504
AU1694   AU        0.110270    0.573148    0.391353     0.007504
PD1695   PD        0.111223    0.608179    0.357455     0.005394
PD1696   PD        0.144939    0.570737    0.359344     0.005394
AU1697   AU        0.145802    0.608507    0.393200     0.007504
PD1698   PD        0.180479    0.571033    0.394160     0.005394
PD1699   PD        0.180570    0.606604    0.358795     0.005394
AU1700   AU        0.215143    0.572570    0.358059     0.007504
AU1701   AU        0.216836    0.606817    0.393244     0.007504
AU1702   AU        0.249645    0.568635    0.395113     0.007504
PD1703   PD        0.251586    0.607632    0.358974     0.005394
AU1704   AU        0.288264    0.574957    0.358733     0.007504
AU1705   AU        0.286609    0.609654    0.393788     0.007504
AU1706   AU        0.324194    0.574716    0.393227     0.007504
PD1707   PD        0.321141    0.610421    0.357129     0.005394
AU1708   AU        0.355342    0.575973    0.355843     0.007504
AU1709   AU        0.356549    0.610248    0.395156     0.007504
AU1710   AU        0.393382    0.574393    0.390590     0.007504
AU1711   AU        0.393158    0.608616    0.358819     0.007504
PD1712   PD        0.427591    0.574098    0.358932     0.005394
PD1713   PD        0.428401    0.609448    0.393262     0.005394
AU1714   AU        0.464634    0.571728    0.392204     0.007504
PD1715   PD        0.466334    0.608676    0.360147     0.005394
AU1716   AU        0.500366    0.573742    0.358460     0.007504
AU1717   AU        0.499096    0.611054    0.396266     0.007504
AU1718   AU        0.534474    0.574264    0.395474     0.007504
AU1719   AU        0.533314    0.609448    0.359617     0.007504
PD1720   PD        0.567581    0.574077    0.360566     0.005394
AU1721   AU        0.569427    0.609112    0.394809     0.007504
PD1722   PD        0.605703    0.573034    0.394632     0.005394
AU1723   AU        0.606295    0.609659    0.360517     0.007504
AU1724   AU        0.642375    0.573220    0.359835     0.007504
PD1725   PD        0.642893    0.609577    0.394184     0.005394
AU1726   AU        0.678316    0.575343    0.396409     0.007504
PD1727   PD        0.679432    0.609380    0.360184     0.005394
AU1728   AU        0.714906    0.574628    0.359532     0.007504
PD1729   PD        0.716681    0.610199    0.396026     0.005394
AU1730   AU        0.751666    0.575301    0.395553     0.007504
AU1731   AU        0.750768    0.611317    0.358066     0.007504
AU1732   AU        0.785631    0.573068    0.358392     0.007504
AU1733   AU        0.782045    0.610404    0.394962     0.007504
AU1734   AU        0.821559    0.570646    0.393842     0.007504
PD1735   PD        0.820757    0.607737    0.360629     0.005394
PD1736   PD        0.074820    0.645778    0.360939     0.005394
PD1737   PD        0.077163    0.680652    0.394517     0.005394
PD1738   PD        0.110651    0.642557    0.394283     0.005394
PD1739   PD        0.111605    0.680189    0.358683     0.005394
PD1740   PD        0.145112    0.644563    0.357436     0.005394
AU1741   AU        0.146412    0.677255    0.392017     0.007504
AU1742   AU        0.183823    0.642183    0.392418     0.007504
PD1743   PD        0.181822    0.680019    0.356878     0.005394
PD1744   PD        0.215846    0.642832    0.357880     0.005394
AU1745   AU        0.216677    0.680789    0.392990     0.007504
PD1746   PD        0.250588    0.644565    0.393147     0.005394
AU1747   AU        0.250091    0.678313    0.358922     0.007504
PD1748   PD        0.286630    0.642790    0.357690     0.005394
AU1749   AU        0.286974    0.677777    0.396067     0.007504
PD1750   PD        0.323023    0.644489    0.393125     0.005394
PD1751   PD        0.321616    0.680701    0.360630     0.005394
AU1752   AU        0.356787    0.645287    0.357726     0.007504
AU1753   AU        0.356384    0.679973    0.393075     0.007504
PD1754   PD        0.394275    0.645044    0.393294     0.005394
AU1755   AU        0.393065    0.681394    0.358010     0.007504
AU1756   AU        0.429344    0.643341    0.358009     0.007504
AU1757   AU        0.429937    0.679682    0.395422     0.007504
AU1758   AU        0.462783    0.644700    0.394783     0.007504
AU1759   AU        0.461185    0.682335    0.356277     0.007504
AU1760   AU        0.497087    0.647151    0.359317     0.007504
PD1761   PD        0.500022    0.683399    0.395726     0.005394
PD1762   PD        0.534786    0.648258    0.398056     0.005394
AU1763   AU        0.533916    0.680405    0.358591     0.007504
AU1764   AU        0.568018    0.645718    0.362333     0.007504
AU1765   AU        0.571430    0.682617    0.398801     0.007504
AU1766   AU        0.603865    0.646751    0.393991     0.007504
PD1767   PD        0.606784    0.679897    0.358933     0.005394
PD1768   PD        0.643041    0.644208    0.359932     0.005394
AU1769   AU        0.641773    0.681382    0.394060     0.007504
AU1770   AU        0.676762    0.645973    0.395244     0.007504
PD1771   PD        0.677568    0.683277    0.360439     0.005394
AU1772   AU        0.713703    0.647194    0.358592     0.007504
AU1773   AU        0.713769    0.680070    0.396868     0.007504
PD1774   PD        0.749559    0.645813    0.394781     0.005394
AU1775   AU        0.750420    0.682440    0.361544     0.007504
AU1776   AU        0.786902    0.645237    0.361520     0.007504
PD1777   PD        0.784170    0.680312    0.395763     0.005394
PD1778   PD        0.113024    0.716185    0.393105     0.005394
PD1779   PD        0.147395    0.715545    0.360017     0.005394
PD1780   PD        0.145045    0.751506    0.394607     0.005394
PD1781   PD        0.181280    0.714570    0.394664     0.005394
PD1782   PD        0.182127    0.749732    0.359982     0.005394
PD1783   PD        0.215019    0.714112    0.360453     0.005394
AU1784   AU        0.215695    0.752803    0.396153     0.007504
PD1785   PD        0.251313    0.714898    0.396742     0.005394
AU1786   AU        0.248648    0.750178    0.361092     0.007504
PD1787   PD        0.286112    0.715641    0.359602     0.005394
PD1788   PD        0.285805    0.750798    0.394706     0.005394
AU1789   AU        0.323628    0.715463    0.394406     0.007504
PD1790   PD        0.322069    0.751950    0.361050     0.005394
PD1791   PD        0.358006    0.715960    0.361101     0.005394
PD1792   PD        0.358596    0.753810    0.394728     0.005394
AU1793   AU        0.394995    0.714774    0.394926     0.007504
PD1794   PD        0.392194    0.751566    0.359607     0.005394
AU1795   AU        0.428349    0.718336    0.359785     0.007504
PD1796   PD        0.429044    0.752047    0.396748     0.005394
AU1797   AU        0.465603    0.716978    0.396132     0.007504
PD1798   PD        0.462662    0.750679    0.359659     0.005394
AU1799   AU        0.498833    0.714574    0.358718     0.007504
AU1800   AU        0.500244    0.750990    0.397239     0.007504
AU1801   AU        0.536258    0.715647    0.396558     0.007504
AU1802   AU        0.535118    0.749815    0.362065     0.007504
AU1803   AU        0.572591    0.715956    0.358765     0.007504
AU1804   AU        0.572145    0.751037    0.396598     0.007504
AU1805   AU        0.606699    0.716843    0.396166     0.007504
PD1806   PD        0.605997    0.751394    0.359355     0.005394
AU1807   AU        0.641868    0.717710    0.358867     0.007504
AU1808   AU        0.643471    0.749940    0.395486     0.007504
PD1809   PD        0.680774    0.715536    0.394522     0.005394
PD1810   PD        0.679634    0.750196    0.358415     0.005394
AU1811   AU        0.714230    0.716015    0.361007     0.007504
PD1812   PD        0.715186    0.751532    0.395138     0.005394
PD1813   PD        0.748977    0.715268    0.396959     0.005394
PD1814   PD        0.180466    0.787251    0.394953     0.005394
PD1815   PD        0.216585    0.787688    0.361093     0.005394
PD1816   PD        0.252461    0.786137    0.396425     0.005394
AU1817   AU        0.249614    0.821981    0.363838     0.007504
AU1818   AU        0.284611    0.787658    0.360688     0.007504
PD1819   PD        0.286628    0.821683    0.396369     0.005394
AU1820   AU        0.322094    0.787516    0.394895     0.007504
PD1821   PD        0.322149    0.821234    0.362056     0.005394
AU1822   AU        0.355918    0.787530    0.360842     0.007504
AU1823   AU        0.359564    0.821511    0.396225     0.007504
PD1824   PD        0.393542    0.787619    0.395057     0.005394
PD1825   PD        0.394230    0.822558    0.359168     0.005394
AU1826   AU        0.429331    0.785662    0.357655     0.007504
PD1827   PD        0.429372    0.820918    0.394686     0.005394
PD1828   PD        0.463617    0.785416    0.394830     0.005394
PD1829   PD        0.463835    0.820613    0.361570     0.005394
AU1830   AU        0.500801    0.787048    0.360503     0.007504
PD1831   PD        0.498345    0.820153    0.395652     0.005394
AU1832   AU        0.537076    0.786927    0.394612     0.007504
PD1833   PD        0.534298    0.826476    0.361842     0.005394
AU1834   AU        0.572485    0.787439    0.359766     0.007504
PD1835   PD        0.572660    0.822404    0.394494     0.005394
PD1836   PD        0.608241    0.787562    0.395093     0.005394
PD1837   PD        0.606383    0.824004    0.358544     0.005394
AU1838   AU        0.645197    0.785619    0.358619     0.007504
AU1839   AU        0.679163    0.785370    0.395636     0.007504
AU1840   AU        0.392029    0.858816    0.391933     0.007504
AU1841   AU        0.432393    0.862282    0.356737     0.007504
AU1842   AU        0.461288    0.857967    0.396632     0.007504
PD1843   PD        0.251233    0.041654    0.427789     0.005394
AU1844   AU        0.286135    0.037452    0.462654     0.007504
PD1845   PD        0.324291    0.038458    0.424777     0.005394
AU1846   AU        0.360207    0.007124    0.424077     0.007504
AU1847   AU        0.356125    0.038539    0.463063     0.007504
AU1848   AU        0.394658    0.005634    0.460024     0.007504
PD1849   PD        0.398030    0.041244    0.424047     0.005394
PD1850   PD        0.430274    0.004411    0.424708     0.005394
PD1851   PD        0.431017    0.039411    0.463208     0.005394
AU1852   AU        0.465335    0.004200    0.464786     0.007504
PD1853   PD        0.463919    0.041271    0.427848     0.005394
AU1854   AU        0.498831    0.005758    0.427107     0.007504
PD1855   PD        0.501439    0.040140    0.462670     0.005394
AU1856   AU        0.535904    0.041032    0.427125     0.007504
PD1857   PD        0.568497    0.040434    0.462365     0.005394
AU1858   AU        0.606482    0.036059    0.429925     0.007504
PD1859   PD        0.146541    0.110387    0.460365     0.005394
PD1860   PD        0.180347    0.076961    0.461103     0.005394
PD1861   PD        0.181348    0.110288    0.427441     0.005394
PD1862   PD        0.216495    0.078049    0.426944     0.005394
PD1863   PD        0.217447    0.112545    0.463325     0.005394
PD1864   PD        0.251727    0.073297    0.461007     0.005394
PD1865   PD        0.254816    0.111021    0.428335     0.005394
AU1866   AU        0.289463    0.075933    0.427704     0.007504
AU1867   AU        0.290199    0.111297    0.462411     0.007504
AU1868   AU        0.324119    0.072127    0.464239     0.007504
PD1869   PD        0.326074    0.111095    0.429005     0.005394
AU1870   AU        0.360254    0.072676    0.427588     0.007504
AU1871   AU        0.360872    0.108155    0.461982     0.007504
AU1872   AU        0.395013    0.074597    0.461980     0.007504
PD1873   PD        0.396758    0.109280    0.426176     0.005394
PD1874   PD        0.431849    0.077939    0.427078     0.005394
PD1875   PD        0.430310    0.112894    0.461703     0.005394
PD1876   PD        0.468229    0.076428    0.461243     0.005394
AU1877   AU        0.467695    0.110975    0.426953     0.007504
PD1878   PD        0.500644    0.076619    0.425877     0.005394
AU1879   AU        0.501585    0.111345    0.462047     0.007504
PD1880   PD        0.536489    0.075802    0.464099     0.005394
PD1881   PD        0.536559    0.110005    0.424981     0.005394
AU1882   AU        0.573720    0.073421    0.426884     0.007504
AU1883   AU        0.568224    0.108576    0.462500     0.007504
AU1884   AU        0.608399    0.074325    0.461711     0.007504
PD1885   PD        0.608333    0.111241    0.427472     0.005394
AU1886   AU        0.643864    0.075458    0.428155     0.007504
PD1887   PD        0.647171    0.110770    0.462944     0.005394
AU1888   AU        0.681678    0.072191    0.465434     0.007504
PD1889   PD        0.678051    0.112201    0.430032     0.005394
AU1890   AU        0.711667    0.111306    0.464387     0.007504
PD1891   PD        0.075653    0.180409    0.463055     0.005394
PD1892   PD        0.110822    0.143851    0.463368     0.005394
AU1893   AU        0.112441    0.180782    0.429365     0.007504
PD1894   PD        0.146593    0.147256    0.426307     0.005394
PD1895   PD        0.148066    0.179997    0.460825     0.005394
PD1896   PD        0.181672    0.144541    0.465342     0.005394
AU1897   AU        0.184176    0.180582    0.427022     0.007504
PD1898   PD        0.219211    0.144614    0.428504     0.005394
PD1899   PD        0.216948    0.180550    0.463368     0.005394
PD1900   PD        0.252244    0.143567    0.461143     0.005394
AU1901   AU        0.252182    0.181993    0.427997     0.007504
PD1902   PD        0.289822    0.144205    0.427316     0.005394
AU1903   AU        0.289426    0.181914    0.462162     0.007504
AU1904   AU        0.326226    0.146324    0.463811     0.007504
AU1905   AU        0.322931    0.180632    0.427043     0.007504
AU1906   AU        0.359768    0.147500    0.427913     0.007504
AU1907   AU        0.360970    0.180549    0.465453     0.007504
PD1908   PD        0.394244    0.146769    0.461931     0.005394
AU1909   AU        0.394115    0.184552    0.429621     0.007504
AU1910   AU        0.431021    0.146174    0.426839     0.007504
AU1911   AU        0.430667    0.180411    0.463903     0.007504
AU1912   AU        0.466902    0.146300    0.463210     0.007504
AU1913   AU        0.464009    0.182922    0.426761     0.007504
AU1914   AU        0.500977    0.146116    0.426248     0.007504
AU1915   AU        0.500846    0.181915    0.465506     0.007504
PD1916   PD        0.535256    0.147909    0.460740     0.005394
AU1917   AU        0.536374    0.186022    0.427632     0.007504
AU1918   AU        0.571272    0.144512    0.427864     0.007504
PD1919   PD        0.570080    0.182262    0.463803     0.005394
AU1920   AU        0.607263    0.147037    0.462820     0.007504
PD1921   PD        0.605941    0.181417    0.428004     0.005394
PD1922   PD        0.643138    0.147191    0.430318     0.005394
AU1923   AU        0.644128    0.181633    0.465376     0.007504
AU1924   AU        0.679336    0.147416    0.463250     0.007504
AU1925   AU        0.678602    0.182185    0.430308     0.007504
PD1926   PD        0.715646    0.146309    0.428306     0.005394
PD1927   PD        0.715451    0.181095    0.463884     0.005394
PD1928   PD        0.748796    0.144759    0.464732     0.005394
AU1929   AU        0.749109    0.182665    0.428493     0.007504
PD1930   PD        0.783479    0.180717    0.464696     0.005394
AU1931   AU        0.039725    0.252536    0.429554     0.007504
PD1932   PD        0.075543    0.218168    0.427737     0.005394
PD1933   PD        0.077630    0.253478    0.463880     0.005394
AU1934   AU        0.110494    0.219223    0.464316     0.007504
AU1935   AU        0.111173    0.252853    0.426474     0.007504
PD1936   PD        0.148454    0.217176    0.428553     0.005394
PD1937   PD        0.147904    0.253242    0.463022     0.005394
PD1938   PD        0.182394    0.216686    0.464522     0.005394
AU1939   AU        0.182677    0.252901    0.426784     0.007504
AU1940   AU        0.218064    0.218860    0.427595     0.007504
PD1941   PD        0.217101    0.254013    0.464925     0.005394
AU1942   AU        0.252055    0.217038    0.464079     0.007504
AU1943   AU        0.252270    0.254446    0.427365     0.007504
PD1944   PD        0.289327    0.217769    0.427594     0.005394
PD1945   PD        0.289100    0.250846    0.463645     0.005394
AU1946   AU        0.322814    0.218329    0.466562     0.007504
AU1947   AU        0.325568    0.252758    0.427594     0.007504
AU1948   AU        0.357930    0.217221    0.428526     0.007504
AU1949   AU        0.360027    0.251685    0.465095     0.007504
AU1950   AU        0.394612    0.216842    0.466599     0.007504
PD1951   PD        0.394257    0.253676    0.426111     0.005394
AU1952   AU        0.429808    0.219302    0.426672     0.007504
PD1953   PD        0.429439    0.252758    0.461007     0.005394
PD1954   PD        0.466050    0.218225    0.463610     0.005394
AU1955   AU        0.464918    0.256356    0.427796     0.007504
AU1956   AU        0.499714    0.219395    0.429831     0.007504
PD1957   PD        0.502425    0.255383    0.463957     0.005394
PD1958   PD        0.535162    0.216509    0.464863     0.005394
AU1959   AU        0.534438    0.253986    0.428008     0.007504
AU1960   AU        0.571631    0.217907    0.429651     0.007504
AU1961   AU        0.573950    0.253803    0.461752     0.007504
AU1962   AU        0.607325    0.216852    0.461915     0.007504
PD1963   PD        0.608893    0.252983    0.427704     0.005394
AU1964   AU        0.642002    0.217785    0.428402     0.007504
PD1965   PD        0.643220    0.252537    0.463738     0.005394
PD1966   PD        0.679985    0.217989    0.466334     0.005394
AU1967   AU        0.679049    0.252599    0.429763     0.007504
AU1968   AU        0.714222    0.217342    0.429671     0.007504
PD1969   PD        0.714154    0.253045    0.464747     0.005394
PD1970   PD        0.748089    0.217752    0.464508     0.005394
AU1971   AU        0.749213    0.254213    0.427293     0.007504
AU1972   AU        0.782572    0.216917    0.428098     0.007504
PD1973   PD        0.784980    0.254321    0.464162     0.005394
AU1974   AU        0.820077    0.249726    0.426909     0.007504
PD1975   PD        0.042388    0.291238    0.464401     0.005394
PD1976   PD        0.038548    0.326016    0.427013     0.005394
AU1977   AU        0.075028    0.289040    0.428542     0.007504
PD1978   PD        0.076969    0.326014    0.464003     0.005394
AU1979   AU        0.111057    0.288014    0.463554     0.007504
PD1980   PD        0.110457    0.322371    0.429316     0.005394
PD1981   PD        0.145086    0.286756    0.425434     0.005394
AU1982   AU        0.144962    0.325364    0.462903     0.007504
PD1983   PD        0.181319    0.289562    0.463403     0.005394
PD1984   PD        0.179040    0.322572    0.427615     0.005394
PD1985   PD        0.218801    0.287364    0.427896     0.005394
PD1986   PD        0.216418    0.324335    0.463320     0.005394
AU1987   AU        0.253666    0.288259    0.465463     0.007504
AU1988   AU        0.251857    0.324227    0.426872     0.007504
AU1989   AU        0.287840    0.288921    0.427529     0.007504
AU1990   AU        0.288105    0.326278    0.463103     0.007504
AU1991   AU        0.323683    0.290045    0.463246     0.007504
AU1992   AU        0.325215    0.322938    0.430718     0.007504
PD1993   PD        0.360606    0.288813    0.426742     0.005394
AU1994   AU        0.357661    0.325128    0.465539     0.007504
AU1995   AU        0.393385    0.287627    0.465528     0.007504
PD1996   PD        0.394126    0.325071    0.429253     0.005394
PD1997   PD        0.427810    0.289820    0.427981     0.005394
PD1998   PD        0.428725    0.323774    0.461826     0.005394
AU1999   AU        0.463161    0.290338    0.464583     0.007504
PD2000   PD        0.464802    0.322961    0.428421     0.005394
AU2001   AU        0.500570    0.292273    0.427529     0.007504
AU2002   AU        0.502319    0.324719    0.463709     0.007504
AU2003   AU        0.536817    0.290916    0.462294     0.007504
AU2004   AU        0.536600    0.327024    0.429114     0.007504
PD2005   PD        0.574616    0.290812    0.427631     0.005394
PD2006   PD        0.571314    0.324998    0.462477     0.005394
PD2007   PD        0.608028    0.289135    0.463213     0.005394
PD2008   PD        0.609833    0.322774    0.428818     0.005394
PD2009   PD        0.645170    0.287632    0.428373     0.005394
AU2010   AU        0.643041    0.323869    0.463459     0.007504
PD2011   PD        0.678858    0.288565    0.464197     0.005394
PD2012   PD        0.677383    0.327353    0.430292     0.005394
PD2013   PD        0.712737    0.292406    0.430705     0.005394
PD2014   PD        0.713934    0.324638    0.465175     0.005394
PD2015   PD        0.749492    0.288307    0.462784     0.005394
AU2016   AU        0.749549    0.324427    0.429980     0.007504
AU2017   AU        0.786328    0.288760    0.427870     0.007504
AU2018   AU        0.785378    0.324483    0.465338     0.007504
PD2019   PD        0.820496    0.288833    0.461188     0.005394
PD2020   PD        0.817802    0.324526    0.427718     0.005394
PD2021   PD        0.002519    0.358924    0.427884     0.005394
PD2022   PD        0.003675    0.394717    0.460589     0.005394
AU2023   AU        0.037690    0.355842    0.461993     0.007504
AU2024   AU        0.039871    0.394277    0.427238     0.007504
PD2025   PD        0.075577    0.359012    0.427267     0.005394
AU2026   AU        0.074493    0.394540    0.465446     0.007504
PD2027   PD        0.108053    0.360242    0.462820     0.005394
AU2028   AU        0.110543    0.395195    0.430099     0.007504
AU2029   AU        0.145009    0.358977    0.427721     0.007504
AU2030   AU        0.146084    0.396160    0.464470     0.007504
AU2031   AU        0.181394    0.361172    0.462882     0.007504
AU2032   AU        0.181809    0.395087    0.427368     0.007504
AU2033   AU        0.216531    0.359739    0.426265     0.007504
PD2034   PD        0.215640    0.394332    0.461742     0.005394
AU2035   AU        0.251924    0.360639    0.462349     0.007504
PD2036   PD        0.251413    0.396762    0.425828     0.005394
PD2037   PD        0.287533    0.361160    0.427192     0.005394
AU2038   AU        0.287976    0.396974    0.463027     0.007504
PD2039   PD        0.323721    0.363594    0.465293     0.005394
AU2040   AU        0.324355    0.396981    0.428951     0.007504
AU2041   AU        0.358216    0.360029    0.428774     0.007504
AU2042   AU        0.361709    0.397778    0.464755     0.007504
AU2043   AU        0.395163    0.361061    0.463972     0.007504
PD2044   PD        0.396494    0.397403    0.427658     0.005394
AU2045   AU        0.430062    0.360767    0.429011     0.007504
AU2046   AU        0.430430    0.397720    0.462547     0.007504
AU2047   AU        0.464020    0.358368    0.464194     0.007504
PD2048   PD        0.465550    0.396006    0.427261     0.005394
AU2049   AU        0.499951    0.359595    0.427848     0.007504
PD2050   PD        0.500616    0.396014    0.464550     0.005394
PD2051   PD        0.536949    0.360820    0.466094     0.005394
PD2052   PD        0.535260    0.396231    0.431959     0.005394
AU2053   AU        0.572757    0.362143    0.430827     0.007504
PD2054   PD        0.572080    0.397677    0.464430     0.005394
AU2055   AU        0.609976    0.362769    0.465246     0.007504
PD2056   PD        0.607707    0.396001    0.428448     0.005394
PD2057   PD        0.644187    0.359780    0.430454     0.005394
PD2058   PD        0.643128    0.396835    0.463215     0.005394
PD2059   PD        0.678601    0.359977    0.463969     0.005394
AU2060   AU        0.679833    0.398854    0.430577     0.007504
PD2061   PD        0.715167    0.361931    0.427689     0.005394
PD2062   PD        0.713051    0.399940    0.467893     0.005394
AU2063   AU        0.747279    0.361591    0.464938     0.007504
PD2064   PD        0.748410    0.398753    0.433344     0.005394
PD2065   PD        0.784464    0.360212    0.432637     0.005394
PD2066   PD        0.785244    0.395591    0.467945     0.005394
AU2067   AU        0.821251    0.361167    0.467653     0.007504
AU2068   AU        0.818542    0.397513    0.431559     0.007504
AU2069   AU        0.855313    0.362053    0.429598     0.007504
AU2070   AU        0.856574    0.397289    0.466154     0.007504
AU2071   AU        0.000714    0.429606    0.427590     0.007504
PD2072   PD        0.002356    0.466638    0.462820     0.005394
AU2073   AU        0.039045    0.430310    0.465864     0.007504
AU2074   AU        0.037315    0.466372    0.426908     0.007504
PD2075   PD        0.071832    0.431462    0.426767     0.005394
AU2076   AU        0.074085    0.465712    0.464226     0.007504
PD2077   PD        0.108063    0.430204    0.464779     0.005394
AU2078   AU        0.108995    0.462974    0.428212     0.007504
PD2079   PD        0.145537    0.429809    0.430817     0.005394
PD2080   PD        0.146497    0.464720    0.461726     0.005394
PD2081   PD        0.180097    0.429814    0.464295     0.005394
PD2082   PD        0.183075    0.466638    0.428450     0.005394
AU2083   AU        0.216645    0.429920    0.428133     0.007504
PD2084   PD        0.217563    0.464988    0.464901     0.005394
PD2085   PD        0.250143    0.428302    0.462205     0.005394
AU2086   AU        0.251941    0.464681    0.428658     0.007504
AU2087   AU        0.289021    0.429165    0.425693     0.007504
PD2088   PD        0.284504    0.467365    0.464185     0.005394
AU2089   AU        0.324988    0.432357    0.466239     0.007504
AU2090   AU        0.323813    0.469107    0.430235     0.007504
AU2091   AU        0.360274    0.431624    0.428755     0.007504
AU2092   AU        0.361040    0.470458    0.463016     0.007504
AU2093   AU        0.393561    0.433330    0.465347     0.007504
PD2094   PD        0.394904    0.469172    0.428613     0.005394
AU2095   AU        0.429561    0.432222    0.429260     0.007504
PD2096   PD        0.430966    0.467996    0.466403     0.005394
PD2097   PD        0.464605    0.430815    0.463345     0.005394
AU2098   AU        0.463844    0.467599    0.427537     0.007504
PD2099   PD        0.501246    0.433539    0.430819     0.005394
AU2100   AU        0.499641    0.465251    0.467096     0.007504
AU2101   AU        0.535608    0.431381    0.465781     0.007504
AU2102   AU        0.537277    0.464860    0.428039     0.007504
AU2103   AU        0.570968    0.429658    0.429996     0.007504
PD2104   PD        0.571575    0.464385    0.465623     0.005394
PD2105   PD        0.606635    0.429451    0.465735     0.005394
AU2106   AU        0.606202    0.465313    0.431160     0.007504
AU2107   AU        0.641209    0.433756    0.428984     0.007504
PD2108   PD        0.642178    0.466843    0.464820     0.005394
AU2109   AU        0.679227    0.433186    0.464589     0.007504
AU2110   AU        0.678472    0.468369    0.428598     0.007504
PD2111   PD        0.714928    0.432613    0.428917     0.005394
PD2112   PD        0.712353    0.468741    0.462314     0.005394
AU2113   AU        0.749919    0.433118    0.467081     0.007504
PD2114   PD        0.748211    0.469444    0.429578     0.005394
AU2115   AU        0.783227    0.432977    0.432177     0.007504
AU2116   AU        0.784645    0.468585    0.466252     0.007504
PD2117   PD        0.820906    0.434072    0.467829     0.005394
PD2118   PD        0.816940    0.468160    0.430162     0.005394
PD2119   PD        0.852735    0.434655    0.432336     0.005394
AU2120   AU        0.852333    0.469092    0.469687     0.007504
AU2121   AU        0.000741    0.506202    0.430084     0.007504
AU2122   AU        0.037015    0.503602    0.464766     0.007504
PD2123   PD        0.038187    0.539370    0.429945     0.005394
PD2124   PD        0.071679    0.501829    0.429108     0.005394
AU2125   AU        0.074949    0.537032    0.465645     0.007504
PD2126   PD        0.109924    0.500200    0.464223     0.005394
AU2127   AU        0.108874    0.537020    0.428964     0.007504
AU2128   AU        0.148191    0.499858    0.430303     0.007504
PD2129   PD        0.147685    0.538489    0.466773     0.005394
PD2130   PD        0.182234    0.500059    0.465539     0.005394
AU2131   AU        0.180972    0.538612    0.431166     0.007504
AU2132   AU        0.215959    0.502443    0.429855     0.007504
AU2133   AU        0.218115    0.536828    0.465784     0.007504
PD2134   PD        0.252859    0.501431    0.465497     0.005394
AU2135   AU        0.253299    0.535132    0.430612     0.007504
PD2136   PD        0.286657    0.503146    0.429475     0.005394
PD2137   PD        0.288758    0.539079    0.464712     0.005394
PD2138   PD        0.321387    0.503715    0.466069     0.005394
AU2139   AU        0.323731    0.537620    0.428703     0.007504
PD2140   PD        0.357783    0.503997    0.427207     0.005394
AU2141   AU        0.358805    0.536637    0.466204     0.007504
PD2142   PD        0.395988    0.502648    0.463060     0.005394
AU2143   AU        0.392797    0.538597    0.428142     0.007504
PD2144   PD        0.427982    0.501423    0.428219     0.005394
PD2145   PD        0.429109    0.539583    0.463478     0.005394
AU2146   AU        0.464916    0.503716    0.463792     0.007504
AU2147   AU        0.464085    0.539616    0.429307     0.007504
AU2148   AU        0.501073    0.500800    0.431510     0.007504
AU2149   AU        0.498716    0.537871    0.467080     0.007504
PD2150   PD        0.537325    0.499517    0.467226     0.005394
AU2151   AU        0.534860    0.537164    0.432468     0.007504
PD2152   PD        0.570373    0.500089    0.430929     0.005394
AU2153   AU        0.569016    0.536531    0.467628     0.007504
AU2154   AU        0.607841    0.501746    0.466069     0.007504
PD2155   PD        0.606750    0.536168    0.432325     0.005394
PD2156   PD        0.642073    0.503296    0.428944     0.005394
AU2157   AU        0.642444    0.539393    0.464375     0.007504
AU2158   AU        0.679495    0.504409    0.465952     0.007504
AU2159   AU        0.679299    0.537993    0.430242     0.007504
AU2160   AU        0.714777    0.504328    0.427981     0.007504
AU2161   AU        0.714368    0.538190    0.464833     0.007504
AU2162   AU        0.749814    0.504917    0.466357     0.007504
PD2163   PD        0.749910    0.537607    0.427942     0.005394
PD2164   PD        0.783665    0.506043    0.431612     0.005394
AU2165   AU        0.784144    0.540070    0.467682     0.007504
AU2166   AU        0.819548    0.504305    0.467331     0.007504
PD2167   PD        0.817890    0.538215    0.429820     0.005394
PD2168   PD        0.853912    0.506291    0.431733     0.005394
PD2169   PD        0.040041    0.573876    0.463424     0.005394
AU2170   AU        0.037390    0.607806    0.430844     0.007504
PD2171   PD        0.074256    0.572273    0.431666     0.005394
PD2172   PD        0.074373    0.607074    0.466168     0.005394
AU2173   AU        0.109425    0.573713    0.465293     0.007504
AU2174   AU        0.109342    0.606344    0.430602     0.007504
PD2175   PD        0.144446    0.571670    0.430445     0.005394
AU2176   AU        0.143569    0.610710    0.466459     0.007504
PD2177   PD        0.179580    0.573513    0.466525     0.005394
AU2178   AU        0.180886    0.608160    0.430686     0.007504
AU2179   AU        0.216245    0.572414    0.429012     0.007504
AU2180   AU        0.218277    0.605601    0.464392     0.007504
PD2181   PD        0.255127    0.574051    0.464046     0.005394
PD2182   PD        0.251434    0.608461    0.428890     0.005394
PD2183   PD        0.288822    0.574091    0.428253     0.005394
PD2184   PD        0.288280    0.609361    0.465151     0.005394
AU2185   AU        0.323918    0.574601    0.465695     0.007504
PD2186   PD        0.320872    0.610232    0.430227     0.005394
PD2187   PD        0.358793    0.572192    0.428182     0.005394
AU2188   AU        0.358546    0.608804    0.463097     0.007504
AU2189   AU        0.392512    0.574039    0.463030     0.007504
AU2190   AU        0.392588    0.610179    0.426547     0.007504
AU2191   AU        0.427774    0.574689    0.428861     0.007504
AU2192   AU        0.427505    0.610668    0.464377     0.007504
AU2193   AU        0.464390    0.574090    0.468964     0.007504
AU2194   AU        0.463690    0.612549    0.428782     0.007504
AU2195   AU        0.495925    0.572524    0.430846     0.007504
AU2196   AU        0.499473    0.610092    0.466523     0.007504
PD2197   PD        0.533776    0.574205    0.467472     0.005394
AU2198   AU        0.535533    0.607737    0.433821     0.007504
PD2199   PD        0.570409    0.572060    0.433978     0.005394
PD2200   PD        0.572339    0.609806    0.467369     0.005394
AU2201   AU        0.604777    0.573527    0.467680     0.007504
PD2202   PD        0.604519    0.608705    0.430379     0.005394
AU2203   AU        0.643916    0.575138    0.429426     0.007504
AU2204   AU        0.641406    0.608461    0.464222     0.007504
PD2205   PD        0.678123    0.570232    0.467620     0.005394
PD2206   PD        0.679508    0.611463    0.430025     0.005394
AU2207   AU        0.717122    0.573390    0.429734     0.007504
PD2208   PD        0.714553    0.608225    0.466715     0.005394
PD2209   PD        0.748398    0.574241    0.466291     0.005394
PD2210   PD        0.750304    0.608677    0.433277     0.005394
PD2211   PD        0.785624    0.574246    0.428856     0.005394
AU2212   AU        0.786586    0.610293    0.470082     0.007504
PD2213   PD        0.821671    0.573427    0.469161     0.005394
PD2214   PD        0.819459    0.608398    0.430768     0.005394
AU2215   AU        0.075462    0.641111    0.431525     0.007504
PD2216   PD        0.073499    0.678334    0.462406     0.005394
PD2217   PD        0.109507    0.645736    0.465021     0.005394
AU2218   AU        0.110530    0.681329    0.430680     0.007504
AU2219   AU        0.144351    0.644003    0.431406     0.007504
AU2220   AU        0.145408    0.678988    0.466999     0.007504
AU2221   AU        0.183072    0.641586    0.464534     0.007504
AU2222   AU        0.180690    0.677573    0.429720     0.007504
PD2223   PD        0.217499    0.642921    0.429877     0.005394
PD2224   PD        0.217653    0.676753    0.465983     0.005394
AU2225   AU        0.252859    0.644128    0.462891     0.007504
AU2226   AU        0.251640    0.677776    0.429035     0.007504
AU2227   AU        0.290296    0.645105    0.430129     0.007504
PD2228   PD        0.287653    0.679780    0.463931     0.005394
PD2229   PD        0.323592    0.644480    0.465873     0.005394
PD2230   PD        0.321792    0.680508    0.429132     0.005394
PD2231   PD        0.358348    0.646646    0.430727     0.005394
AU2232   AU        0.356772    0.681367    0.463760     0.007504
PD2233   PD        0.392037    0.647129    0.465016     0.005394
PD2234   PD        0.394461    0.679144    0.430952     0.005394
PD2235   PD        0.428001    0.644934    0.430112     0.005394
PD2236   PD        0.426480    0.679048    0.466966     0.005394
AU2237   AU        0.462858    0.644387    0.466444     0.007504
AU2238   AU        0.462044    0.679479    0.432393     0.007504
PD2239   PD        0.500556    0.649893    0.431563     0.005394
PD2240   PD        0.499642    0.682073    0.467896     0.005394
AU2241   AU        0.534392    0.644986    0.466728     0.007504
PD2242   PD        0.535110    0.682654    0.433669     0.005394
PD2243   PD        0.571036    0.645341    0.431082     0.005394
PD2244   PD        0.572294    0.681814    0.465144     0.005394
AU2245   AU        0.604206    0.645157    0.465992     0.007504
PD2246   PD        0.605001    0.680751    0.430626     0.005394
AU2247   AU        0.638085    0.645239    0.428316     0.007504
PD2248   PD        0.641136    0.678910    0.466543     0.005394
AU2249   AU        0.678765    0.646284    0.466643     0.007504
PD2250   PD        0.675071    0.680030    0.429066     0.005394
AU2251   AU        0.715838    0.645682    0.431891     0.007504
PD2252   PD        0.712584    0.681106    0.466976     0.005394
PD2253   PD        0.747750    0.646197    0.468397     0.005394
PD2254   PD        0.749883    0.681284    0.432216     0.005394
PD2255   PD        0.783460    0.645349    0.430188     0.005394
PD2256   PD        0.784988    0.677501    0.466870     0.005394
PD2257   PD        0.107651    0.716649    0.464888     0.005394
AU2258   AU        0.145351    0.715524    0.430617     0.007504
PD2259   PD        0.144873    0.749486    0.466594     0.005394
AU2260   AU        0.180312    0.714453    0.466022     0.007504
AU2261   AU        0.178445    0.749546    0.431003     0.007504
AU2262   AU        0.215906    0.713041    0.429532     0.007504
AU2263   AU        0.213944    0.751014    0.463230     0.007504
PD2264   PD        0.250717    0.715086    0.464114     0.005394
PD2265   PD        0.252113    0.751232    0.430358     0.005394
PD2266   PD        0.285921    0.715035    0.430741     0.005394
AU2267   AU        0.286712    0.752719    0.466223     0.007504
AU2268   AU        0.320383    0.718231    0.463640     0.007504
PD2269   PD        0.322278    0.751578    0.429596     0.005394
AU2270   AU        0.356963    0.716745    0.430787     0.007504
AU2271   AU        0.358063    0.750860    0.465354     0.007504
AU2272   AU        0.391374    0.714603    0.465582     0.007504
PD2273   PD        0.394232    0.751451    0.430682     0.005394
PD2274   PD        0.426528    0.716259    0.433084     0.005394
AU2275   AU        0.427055    0.751829    0.467594     0.007504
AU2276   AU        0.464305    0.719123    0.465478     0.007504
PD2277   PD        0.464400    0.752120    0.430272     0.005394
PD2278   PD        0.499363    0.715527    0.432264     0.005394
AU2279   AU        0.502473    0.751661    0.467088     0.007504
PD2280   PD        0.535047    0.716118    0.468643     0.005394
AU2281   AU        0.536971    0.750585    0.432563     0.007504
PD2282   PD        0.573944    0.718746    0.434539     0.005394
PD2283   PD        0.570935    0.752182    0.466496     0.005394
PD2284   PD        0.608903    0.716718    0.465473     0.005394
AU2285   AU        0.607074    0.753014    0.431399     0.007504
AU2286   AU        0.640468    0.716505    0.430647     0.007504
AU2287   AU        0.641824    0.751439    0.469517     0.007504
AU2288   AU        0.675994    0.713897    0.465987     0.007504
AU2289   AU        0.677159    0.752230    0.432423     0.007504
PD2290   PD        0.712992    0.715393    0.430770     0.005394
AU2291   AU        0.713726    0.751262    0.467249     0.007504
AU2292   AU        0.750031    0.715183    0.465831     0.007504
PD2293   PD        0.181105    0.790594    0.465776     0.005394
PD2294   PD        0.214675    0.787055    0.430389     0.005394
PD2295   PD        0.250173    0.786539    0.463103     0.005394
PD2296   PD        0.252823    0.820365    0.430185     0.005394
PD2297   PD        0.287515    0.785297    0.429103     0.005394
PD2298   PD        0.287082    0.821680    0.462368     0.005394
AU2299   AU        0.321728    0.787714    0.465943     0.007504
PD2300   PD        0.322719    0.822344    0.428984     0.005394
PD2301   PD        0.356756    0.786580    0.432062     0.005394
PD2302   PD        0.359131    0.822368    0.467295     0.005394
PD2303   PD        0.394563    0.786530    0.465223     0.005394
PD2304   PD        0.394196    0.821905    0.430890     0.005394
PD2305   PD        0.428550    0.786785    0.431205     0.005394
PD2306   PD        0.428424    0.820579    0.465948     0.005394
PD2307   PD        0.464815    0.786038    0.464980     0.005394
AU2308   AU        0.462722    0.821035    0.429996     0.007504
PD2309   PD        0.499941    0.787610    0.430982     0.005394
PD2310   PD        0.499232    0.821812    0.468863     0.005394
PD2311   PD        0.536173    0.785077    0.467303     0.005394
AU2312   AU        0.535431    0.822854    0.431888     0.007504
AU2313   AU        0.572921    0.786966    0.431299     0.007504
AU2314   AU        0.574172    0.820456    0.466497     0.007504
PD2315   PD        0.606531    0.784056    0.467509     0.005394
PD2316   PD        0.607939    0.821462    0.432462     0.005394
PD2317   PD        0.641817    0.787395    0.432913     0.005394
PD2318   PD        0.676871    0.786526    0.467538     0.005394
PD2319   PD        0.357643    0.855089    0.433762     0.005394
PD2320   PD        0.393765    0.855921    0.466511     0.005394
AU2321   AU        0.427175    0.858300    0.431768     0.007504
AU2322   AU        0.464010    0.856897    0.469085     0.007504
PD2323   PD        0.499663    0.854728    0.431438     0.005394
AU2324   AU        0.250028    0.036903    0.497700     0.007504
AU2325   AU        0.286746    0.033609    0.535331     0.007504
AU2326   AU        0.323881    0.036318    0.502337     0.007504
PD2327   PD        0.363083    0.040159    0.534624     0.005394
PD2328   PD        0.395189    0.040145    0.497306     0.005394
PD2329   PD        0.429448    0.003365    0.497927     0.005394
AU2330   AU        0.430074    0.040514    0.533462     0.007504
AU2331   AU        0.467405    0.038885    0.500479     0.007504
PD2332   PD        0.502646    0.041096    0.537833     0.005394
AU2333   AU        0.536096    0.037864    0.500013     0.007504
AU2334   AU        0.573063    0.039157    0.536160     0.007504
PD2335   PD        0.605408    0.041092    0.497208     0.005394
AU2336   AU        0.183885    0.108599    0.498978     0.007504
AU2337   AU        0.215245    0.072336    0.500925     0.007504
PD2338   PD        0.217677    0.109060    0.536942     0.005394
AU2339   AU        0.252867    0.073451    0.535131     0.007504
AU2340   AU        0.252678    0.108182    0.497500     0.007504
AU2341   AU        0.288249    0.072191    0.500498     0.007504
PD2342   PD        0.289527    0.108908    0.533473     0.005394
PD2343   PD        0.325252    0.074192    0.534038     0.005394
PD2344   PD        0.324052    0.107156    0.496469     0.005394
PD2345   PD        0.360206    0.073346    0.499146     0.005394
PD2346   PD        0.361504    0.109339    0.535144     0.005394
PD2347   PD        0.397603    0.075455    0.531851     0.005394
AU2348   AU        0.395863    0.110861    0.498026     0.007504
AU2349   AU        0.432691    0.074446    0.496824     0.007504
AU2350   AU        0.431345    0.110179    0.532377     0.007504
PD2351   PD        0.466526    0.074754    0.536234     0.005394
PD2352   PD        0.467381    0.109155    0.497925     0.005394
AU2353   AU        0.500679    0.073864    0.499494     0.007504
PD2354   PD        0.500059    0.111518    0.536436     0.005394
PD2355   PD        0.533640    0.077435    0.536472     0.005394
AU2356   AU        0.533907    0.113061    0.498822     0.007504
AU2357   AU        0.569257    0.075867    0.498577     0.007504
AU2358   AU        0.568779    0.111238    0.535282     0.007504
PD2359   PD        0.605977    0.076641    0.533793     0.005394
AU2360   AU        0.607270    0.109351    0.498912     0.007504
PD2361   PD        0.642334    0.073192    0.497015     0.005394
PD2362   PD        0.641463    0.108562    0.533661     0.005394
AU2363   AU        0.679734    0.106280    0.502704     0.007504
AU2364   AU        0.110586    0.180291    0.499095     0.007504
AU2365   AU        0.145788    0.144987    0.498912     0.007504
AU2366   AU        0.146843    0.181954    0.533593     0.007504
AU2367   AU        0.179192    0.143794    0.531692     0.007504
PD2368   PD        0.182272    0.180414    0.497127     0.005394
PD2369   PD        0.218549    0.146482    0.500987     0.005394
PD2370   PD        0.217283    0.180714    0.533294     0.005394
PD2371   PD        0.251448    0.143422    0.535102     0.005394
AU2372   AU        0.253534    0.179922    0.498195     0.007504
PD2373   PD        0.288501    0.143490    0.498972     0.005394
AU2374   AU        0.289332    0.180880    0.534401     0.007504
AU2375   AU        0.324069    0.146269    0.534181     0.007504
AU2376   AU        0.325137    0.180320    0.497978     0.007504
PD2377   PD        0.359556    0.142825    0.499740     0.005394
AU2378   AU        0.360133    0.181555    0.532950     0.007504
AU2379   AU        0.395924    0.145805    0.532791     0.007504
AU2380   AU        0.395670    0.183643    0.501592     0.007504
AU2381   AU        0.433466    0.144881    0.499197     0.007504
PD2382   PD        0.431562    0.182313    0.535447     0.005394
PD2383   PD        0.466713    0.147275    0.535226     0.005394
PD2384   PD        0.465500    0.180746    0.497971     0.005394
PD2385   PD        0.499527    0.146043    0.501616     0.005394
PD2386   PD        0.499352    0.182992    0.533004     0.005394
PD2387   PD        0.535772    0.147927    0.532294     0.005394
AU2388   AU        0.536131    0.179183    0.497891     0.007504
PD2389   PD        0.573203    0.145367    0.498986     0.005394
PD2390   PD        0.570184    0.180682    0.533867     0.005394
PD2391   PD        0.608213    0.143460    0.533684     0.005394
PD2392   PD        0.606681    0.180785    0.497909     0.005394
PD2393   PD        0.646010    0.145672    0.500278     0.005394
PD2394   PD        0.640106    0.179643    0.533304     0.005394
PD2395   PD        0.676951    0.147792    0.534602     0.005394
PD2396   PD        0.678720    0.181394    0.500018     0.005394
AU2397   AU        0.713202    0.146483    0.499549     0.007504
PD2398   PD        0.715982    0.180917    0.534538     0.005394
AU2399   AU        0.749221    0.180783    0.498620     0.007504
AU2400   AU        0.038845    0.253497    0.496679     0.007504
PD2401   PD        0.074122    0.215772    0.496360     0.005394
AU2402   AU        0.075266    0.251697    0.533820     0.007504
AU2403   AU        0.110515    0.216805    0.533606     0.007504
AU2404   AU        0.112368    0.253221    0.498684     0.007504
PD2405   PD        0.146671    0.215462    0.496432     0.005394
PD2406   PD        0.146926    0.252061    0.535424     0.005394
AU2407   AU        0.181928    0.216045    0.536496     0.007504
AU2408   AU        0.180877    0.251709    0.498092     0.007504
PD2409   PD        0.218550    0.213988    0.499293     0.005394
AU2410   AU        0.217664    0.251975    0.532602     0.007504
PD2411   PD        0.253377    0.214506    0.534046     0.005394
PD2412   PD        0.251982    0.251598    0.499259     0.005394
PD2413   PD        0.288854    0.219081    0.498520     0.005394
PD2414   PD        0.287980    0.253165    0.535612     0.005394
AU2415   AU        0.322325    0.217446    0.534645     0.007504
AU2416   AU        0.323808    0.253987    0.499817     0.007504
AU2417   AU        0.359559    0.218737    0.500343     0.007504
PD2418   PD        0.360876    0.252574    0.537330     0.005394
PD2419   PD        0.397386    0.216911    0.536768     0.005394
PD2420   PD        0.393237    0.253707    0.502226     0.005394
AU2421   AU        0.432201    0.219106    0.500286     0.007504
AU2422   AU        0.431330    0.252597    0.535354     0.007504
PD2423   PD        0.467110    0.218820    0.534346     0.005394
AU2424   AU        0.466784    0.255415    0.498742     0.007504
AU2425   AU        0.502070    0.218320    0.500599     0.007504
AU2426   AU        0.503166    0.254539    0.535320     0.007504
AU2427   AU        0.537332    0.217038    0.532632     0.007504
AU2428   AU        0.538280    0.254506    0.496768     0.007504
PD2429   PD        0.574073    0.217168    0.499983     0.005394
AU2430   AU        0.570897    0.252696    0.534490     0.007504
PD2431   PD        0.607699    0.216292    0.534955     0.005394
AU2432   AU        0.605401    0.252912    0.499381     0.007504
AU2433   AU        0.640681    0.216987    0.500885     0.007504
PD2434   PD        0.642857    0.251919    0.535538     0.005394
AU2435   AU        0.676774    0.215784    0.535350     0.007504
AU2436   AU        0.677669    0.253605    0.499425     0.007504
PD2437   PD        0.715291    0.214187    0.501166     0.005394
PD2438   PD        0.714007    0.250727    0.533256     0.005394
AU2439   AU        0.750478    0.218785    0.535913     0.007504
AU2440   AU        0.750909    0.252544    0.499816     0.007504
AU2441   AU        0.788460    0.216957    0.497350     0.007504
AU2442   AU        0.786624    0.254574    0.535318     0.007504
AU2443   AU        0.821460    0.257169    0.497726     0.007504
AU2444   AU        0.042158    0.288594    0.535090     0.007504
PD2445   PD        0.042310    0.321884    0.499201     0.005394
PD2446   PD        0.075512    0.289282    0.498969     0.005394
PD2447   PD        0.076741    0.324310    0.531630     0.005394
AU2448   AU        0.110955    0.289190    0.533532     0.007504
PD2449   PD        0.111091    0.323481    0.498036     0.005394
PD2450   PD        0.146213    0.288429    0.498452     0.005394
PD2451   PD        0.145365    0.322880    0.531876     0.005394
AU2452   AU        0.181902    0.287409    0.534304     0.007504
PD2453   PD        0.180216    0.324811    0.497933     0.005394
PD2454   PD        0.216059    0.289219    0.498202     0.005394
AU2455   AU        0.216661    0.325202    0.534122     0.007504
PD2456   PD        0.250795    0.288826    0.533814     0.005394
PD2457   PD        0.250369    0.324050    0.499346     0.005394
AU2458   AU        0.286867    0.288846    0.503162     0.007504
AU2459   AU        0.287807    0.324938    0.537896     0.007504
PD2460   PD        0.327180    0.288268    0.535385     0.005394
AU2461   AU        0.322528    0.327093    0.500144     0.007504
PD2462   PD        0.359382    0.288589    0.500227     0.005394
AU2463   AU        0.359456    0.323083    0.533689     0.007504
PD2464   PD        0.396037    0.288902    0.534829     0.005394
AU2465   AU        0.395111    0.322178    0.499074     0.007504
AU2466   AU        0.428575    0.288084    0.500893     0.007504
PD2467   PD        0.430149    0.323487    0.533555     0.005394
AU2468   AU        0.465938    0.288556    0.533628     0.007504
AU2469   AU        0.465395    0.325945    0.501122     0.007504
PD2470   PD        0.501446    0.289563    0.500295     0.005394
PD2471   PD        0.500101    0.326224    0.535003     0.005394
AU2472   AU        0.536834    0.292140    0.535525     0.007504
AU2473   AU        0.537698    0.325147    0.500013     0.007504
AU2474   AU        0.573964    0.290188    0.497821     0.007504
AU2475   AU        0.574363    0.325895    0.536029     0.007504
PD2476   PD        0.610122    0.288126    0.535576     0.005394
AU2477   AU        0.604864    0.326969    0.497516     0.007504
PD2478   PD        0.640620    0.288570    0.500144     0.005394
PD2479   PD        0.644955    0.323039    0.534933     0.005394
AU2480   AU        0.678503    0.287515    0.535872     0.007504
AU2481   AU        0.678268    0.321759    0.499758     0.007504
AU2482   AU        0.715649    0.286652    0.499996     0.007504
PD2483   PD        0.713602    0.322874    0.537742     0.005394
AU2484   AU        0.749473    0.288716    0.536069     0.007504
AU2485   AU        0.748600    0.324826    0.500682     0.007504
AU2486   AU        0.785167    0.290051    0.500498     0.007504
AU2487   AU        0.782583    0.326633    0.538484     0.007504
AU2488   AU        0.823317    0.289446    0.535869     0.007504
AU2489   AU        0.822774    0.325735    0.501452     0.007504
AU2490   AU        0.039517    0.355634    0.536268     0.007504
AU2491   AU        0.038007    0.390775    0.498583     0.007504
PD2492   PD        0.075613    0.359508    0.500108     0.005394
PD2493   PD        0.077529    0.393812    0.534632     0.005394
PD2494   PD        0.110780    0.356777    0.532086     0.005394
PD2495   PD        0.110949    0.394101    0.499892     0.005394
PD2496   PD        0.147280    0.360003    0.499175     0.005394
PD2497   PD        0.145327    0.395164    0.532756     0.005394
PD2498   PD        0.180729    0.362311    0.534163     0.005394
PD2499   PD        0.182645    0.396416    0.497300     0.005394
AU2500   AU        0.217511    0.360082    0.497696     0.007504
AU2501   AU        0.216071    0.395366    0.533009     0.007504
AU2502   AU        0.252747    0.359395    0.532044     0.007504
PD2503   PD        0.252806    0.396686    0.497825     0.005394
AU2504   AU        0.287926    0.362164    0.498714     0.007504
PD2505   PD        0.285638    0.394166    0.533639     0.005394
PD2506   PD        0.324452    0.361119    0.536338     0.005394
PD2507   PD        0.322846    0.397725    0.500651     0.005394
AU2508   AU        0.357702    0.362316    0.500353     0.007504
PD2509   PD        0.359830    0.395257    0.534818     0.005394
AU2510   AU        0.394232    0.361288    0.535750     0.007504
PD2511   PD        0.397898    0.392649    0.498793     0.005394
AU2512   AU        0.432255    0.358585    0.500482     0.007504
AU2513   AU        0.430432    0.394449    0.536150     0.007504
AU2514   AU        0.468024    0.358971    0.536051     0.007504
AU2515   AU        0.464916    0.395712    0.499229     0.007504
AU2516   AU        0.502763    0.361641    0.499224     0.007504
AU2517   AU        0.499271    0.396353    0.536076     0.007504
PD2518   PD        0.535897    0.359876    0.538082     0.005394
AU2519   AU        0.537545    0.398049    0.499781     0.007504
PD2520   PD        0.570471    0.361292    0.498243     0.005394
AU2521   AU        0.571368    0.393383    0.535371     0.007504
PD2522   PD        0.610084    0.359821    0.535963     0.005394
AU2523   AU        0.608562    0.394184    0.503412     0.007504
AU2524   AU        0.644427    0.359450    0.498568     0.007504
AU2525   AU        0.643634    0.394152    0.537624     0.007504
PD2526   PD        0.678867    0.360513    0.537398     0.005394
PD2527   PD        0.677659    0.395715    0.502122     0.005394
PD2528   PD        0.713662    0.360598    0.501251     0.005394
PD2529   PD        0.712974    0.395812    0.533948     0.005394
AU2530   AU        0.748447    0.359503    0.537406     0.007504
AU2531   AU        0.749118    0.396151    0.500908     0.007504
PD2532   PD        0.785973    0.361225    0.504658     0.005394
AU2533   AU        0.785440    0.395947    0.539938     0.007504
PD2534   PD        0.819796    0.359693    0.537783     0.005394
PD2535   PD        0.821965    0.397023    0.503620     0.005394
PD2536   PD        0.002749    0.430620    0.498097     0.005394
AU2537   AU        0.035825    0.428437    0.534581     0.007504
PD2538   PD        0.038310    0.467555    0.499283     0.005394
AU2539   AU        0.072210    0.429818    0.503100     0.007504
AU2540   AU        0.073556    0.463729    0.537793     0.007504
PD2541   PD        0.110233    0.429899    0.535053     0.005394
PD2542   PD        0.109678    0.464693    0.500477     0.005394
AU2543   AU        0.143871    0.431100    0.498323     0.007504
AU2544   AU        0.144939    0.464584    0.535443     0.007504
PD2545   PD        0.180687    0.429060    0.534162     0.005394
AU2546   AU        0.180728    0.464967    0.500469     0.007504
AU2547   AU        0.217173    0.432343    0.499217     0.007504
PD2548   PD        0.216587    0.466245    0.534922     0.005394
AU2549   AU        0.252822    0.430762    0.533799     0.007504
PD2550   PD        0.251916    0.465728    0.501217     0.005394
AU2551   AU        0.288228    0.432143    0.496427     0.007504
PD2552   PD        0.287903    0.465561    0.535313     0.005394
AU2553   AU        0.323475    0.430014    0.534972     0.007504
AU2554   AU        0.322799    0.467761    0.500631     0.007504
AU2555   AU        0.360638    0.432575    0.503756     0.007504
PD2556   PD        0.357104    0.466743    0.537210     0.005394
AU2557   AU        0.396228    0.431465    0.535133     0.007504
AU2558   AU        0.393925    0.469621    0.501867     0.007504
AU2559   AU        0.431423    0.431278    0.499680     0.007504
PD2560   PD        0.430087    0.467311    0.538771     0.005394
AU2561   AU        0.463833    0.430824    0.538422     0.007504
AU2562   AU        0.465711    0.467669    0.500752     0.007504
AU2563   AU        0.499945    0.430428    0.502825     0.007504
PD2564   PD        0.502277    0.466534    0.538031     0.005394
PD2565   PD        0.535988    0.427682    0.539721     0.005394
AU2566   AU        0.535514    0.465254    0.503478     0.007504
PD2567   PD        0.572844    0.431175    0.503701     0.005394
AU2568   AU        0.568437    0.465131    0.539287     0.007504
AU2569   AU        0.609293    0.433625    0.537036     0.007504
AU2570   AU        0.606444    0.466243    0.501340     0.007504
AU2571   AU        0.643791    0.432366    0.498826     0.007504
AU2572   AU        0.642650    0.469400    0.538752     0.007504
AU2573   AU        0.679093    0.432605    0.535539     0.007504
AU2574   AU        0.680231    0.468317    0.501348     0.007504
PD2575   PD        0.715510    0.435072    0.500581     0.005394
AU2576   AU        0.715916    0.465208    0.537264     0.007504
AU2577   AU        0.748923    0.430100    0.539208     0.007504
PD2578   PD        0.751885    0.468655    0.501101     0.005394
AU2579   AU        0.785141    0.430641    0.502510     0.007504
AU2580   AU        0.783021    0.469517    0.538206     0.007504
PD2581   PD        0.820533    0.431947    0.537395     0.005394
PD2582   PD        0.818667    0.466701    0.503271     0.005394
AU2583   AU        0.858388    0.431099    0.501826     0.007504
PD2584   PD        0.037715    0.503179    0.535219     0.005394
AU2585   AU        0.035768    0.537009    0.498998     0.007504
AU2586   AU        0.074724    0.500197    0.499846     0.007504
AU2587   AU        0.072854    0.536291    0.535715     0.007504
AU2588   AU        0.108812    0.501114    0.537719     0.007504
AU2589   AU        0.110599    0.537811    0.499978     0.007504
AU2590   AU        0.146076    0.502176    0.500152     0.007504
PD2591   PD        0.145389    0.538207    0.535346     0.005394
PD2592   PD        0.180350    0.500832    0.535459     0.005394
AU2593   AU        0.181251    0.536500    0.497524     0.007504
PD2594   PD        0.216597    0.502120    0.501356     0.005394
PD2595   PD        0.214725    0.537840    0.532341     0.005394
AU2596   AU        0.250066    0.501269    0.535635     0.007504
AU2597   AU        0.253821    0.538423    0.498663     0.007504
AU2598   AU        0.287375    0.502793    0.502202     0.007504
AU2599   AU        0.285656    0.536738    0.539470     0.007504
PD2600   PD        0.323063    0.502557    0.536810     0.005394
PD2601   PD        0.321718    0.539440    0.499710     0.005394
PD2602   PD        0.357504    0.502210    0.500560     0.005394
AU2603   AU        0.356232    0.537351    0.535663     0.007504
AU2604   AU        0.392767    0.505130    0.537837     0.007504
PD2605   PD        0.391262    0.539105    0.502213     0.005394
AU2606   AU        0.428569    0.504180    0.500543     0.007504
PD2607   PD        0.429460    0.539792    0.537568     0.005394
AU2608   AU        0.463821    0.501989    0.539064     0.007504
AU2609   AU        0.464795    0.538380    0.502856     0.007504
AU2610   AU        0.499555    0.503265    0.502253     0.007504
PD2611   PD        0.499876    0.540724    0.538972     0.005394
PD2612   PD        0.533912    0.503901    0.539201     0.005394
AU2613   AU        0.536495    0.539361    0.502949     0.007504
PD2614   PD        0.572512    0.500070    0.499636     0.005394
AU2615   AU        0.570986    0.537703    0.536871     0.007504
AU2616   AU        0.605055    0.502024    0.537251     0.007504
AU2617   AU        0.606763    0.537201    0.501422     0.007504
PD2618   PD        0.642327    0.501042    0.501293     0.005394
PD2619   PD        0.642986    0.533819    0.539451     0.005394
PD2620   PD        0.679039    0.500854    0.538136     0.005394
AU2621   AU        0.677775    0.534666    0.502036     0.007504
AU2622   AU        0.716564    0.502418    0.501595     0.007504
PD2623   PD        0.713233    0.540273    0.536658     0.005394
AU2624   AU        0.748692    0.505576    0.538770     0.007504
AU2625   AU        0.748213    0.540691    0.504435     0.007504
PD2626   PD        0.783113    0.506552    0.501204     0.005394
PD2627   PD        0.786561    0.538535    0.538711     0.005394
PD2628   PD        0.818459    0.504173    0.536763     0.005394
PD2629   PD        0.820957    0.539259    0.503506     0.005394
PD2630   PD        0.039348    0.572047    0.536483     0.005394
AU2631   AU        0.037943    0.609346    0.500993     0.007504
PD2632   PD        0.073614    0.570224    0.500490     0.005394
PD2633   PD        0.073117    0.606582    0.535805     0.005394
PD2634   PD        0.110018    0.571737    0.534615     0.005394
AU2635   AU        0.108165    0.609747    0.501141     0.007504
PD2636   PD        0.144072    0.574596    0.500730     0.005394
AU2637   AU        0.146304    0.609405    0.536364     0.007504
PD2638   PD        0.184196    0.573081    0.534583     0.005394
AU2639   AU        0.180195    0.609281    0.501240     0.007504
AU2640   AU        0.218362    0.574025    0.498921     0.007504
PD2641   PD        0.218353    0.607244    0.536812     0.005394
AU2642   AU        0.251636    0.570227    0.536996     0.007504
PD2643   PD        0.254956    0.609771    0.501694     0.005394
PD2644   PD        0.286708    0.573487    0.499901     0.005394
AU2645   AU        0.287306    0.607493    0.534180     0.007504
AU2646   AU        0.321607    0.572677    0.536628     0.007504
AU2647   AU        0.323337    0.610479    0.500632     0.007504
PD2648   PD        0.359342    0.575563    0.499796     0.005394
AU2649   AU        0.359003    0.609396    0.534806     0.007504
PD2650   PD        0.394466    0.576444    0.535163     0.005394
AU2651   AU        0.392813    0.611399    0.500730     0.007504
AU2652   AU        0.427180    0.574312    0.500485     0.007504
AU2653   AU        0.429014    0.610507    0.537600     0.007504
PD2654   PD        0.462731    0.573578    0.538811     0.005394
PD2655   PD        0.464076    0.611405    0.500297     0.005394
PD2656   PD        0.499479    0.573690    0.503141     0.005394
AU2657   AU        0.496302    0.608658    0.538145     0.007504
PD2658   PD        0.534200    0.574680    0.539195     0.005394
AU2659   AU        0.535594    0.609057    0.503602     0.007504
PD2660   PD        0.570430    0.575166    0.502755     0.005394
AU2661   AU        0.568604    0.607111    0.540498     0.007504
PD2662   PD        0.607881    0.573396    0.538795     0.005394
AU2663   AU        0.607294    0.611630    0.501941     0.007504
AU2664   AU        0.641956    0.573013    0.500825     0.007504
AU2665   AU        0.642587    0.607815    0.539213     0.007504
AU2666   AU        0.676425    0.574228    0.536192     0.007504
AU2667   AU        0.678069    0.610034    0.500548     0.007504
PD2668   PD        0.714147    0.575595    0.500206     0.005394
PD2669   PD        0.712722    0.607312    0.537328     0.005394
PD2670   PD        0.749099    0.574812    0.537667     0.005394
AU2671   AU        0.747624    0.609286    0.503695     0.007504
PD2672   PD        0.786562    0.574480    0.504006     0.005394
PD2673   PD        0.783569    0.608747    0.536583     0.005394
AU2674   AU        0.823093    0.574954    0.537139     0.007504
PD2675   PD        0.821722    0.610251    0.502846     0.005394
PD2676   PD        0.073477    0.643662    0.499880     0.005394
AU2677   AU        0.106316    0.646860    0.538223     0.007504
AU2678   AU        0.106669    0.680445    0.498888     0.007504
AU2679   AU        0.142160    0.644827    0.500427     0.007504
PD2680   PD        0.144458    0.679125    0.534423     0.005394
AU2681   AU        0.182805    0.644795    0.536739     0.007504
AU2682   AU        0.182407    0.679457    0.500501     0.007504
AU2683   AU        0.217303    0.642253    0.500502     0.007504
AU2684   AU        0.216565    0.679782    0.534653     0.007504
AU2685   AU        0.251991    0.643740    0.535930     0.007504
AU2686   AU        0.252850    0.680823    0.499432     0.007504
PD2687   PD        0.287693    0.644646    0.499996     0.005394
PD2688   PD        0.289283    0.677955    0.534705     0.005394
PD2689   PD        0.321543    0.643384    0.535165     0.005394
AU2690   AU        0.321783    0.678813    0.500379     0.007504
AU2691   AU        0.357910    0.645410    0.499237     0.007504
AU2692   AU        0.354957    0.681150    0.540297     0.007504
PD2693   PD        0.393625    0.646727    0.536093     0.005394
PD2694   PD        0.391597    0.681270    0.502433     0.005394
PD2695   PD        0.425359    0.643147    0.503124     0.005394
PD2696   PD        0.428070    0.682915    0.539264     0.005394
PD2697   PD        0.461577    0.646291    0.537436     0.005394
AU2698   AU        0.460848    0.679920    0.501490     0.007504
AU2699   AU        0.498994    0.646515    0.502405     0.007504
AU2700   AU        0.498876    0.680694    0.536043     0.007504
PD2701   PD        0.533025    0.643505    0.538794     0.005394
AU2702   AU        0.534043    0.681905    0.503412     0.007504
AU2703   AU        0.567627    0.644830    0.503053     0.007504
PD2704   PD        0.568484    0.678937    0.539228     0.005394
PD2705   PD        0.606976    0.645213    0.536667     0.005394
AU2706   AU        0.604065    0.678784    0.502033     0.007504
PD2707   PD        0.641128    0.644204    0.501298     0.005394
AU2708   AU        0.644805    0.679838    0.535927     0.007504
AU2709   AU        0.678956    0.641951    0.539421     0.007504
PD2710   PD        0.677949    0.679657    0.501039     0.005394
PD2711   PD        0.713182    0.645239    0.504176     0.005394
PD2712   PD        0.708854    0.680848    0.538532     0.005394
AU2713   AU        0.748760    0.644456    0.539801     0.007504
AU2714   AU        0.749508    0.680415    0.504440     0.007504
PD2715   PD        0.785044    0.643177    0.502892     0.005394
AU2716   AU        0.142587    0.714684    0.501731     0.007504
PD2717   PD        0.181547    0.715481    0.535541     0.005394
AU2718   AU        0.178152    0.752052    0.501009     0.007504
PD2719   PD        0.216291    0.716299    0.498887     0.005394
PD2720   PD        0.215946    0.749453    0.534890     0.005394
PD2721   PD        0.252014    0.716420    0.536606     0.005394
AU2722   AU        0.250964    0.751261    0.499019     0.007504
AU2723   AU        0.288465    0.716624    0.500840     0.007504
AU2724   AU        0.286336    0.750587    0.537005     0.007504
PD2725   PD        0.319422    0.715222    0.537137     0.005394
PD2726   PD        0.323593    0.750559    0.504614     0.005394
AU2727   AU        0.355301    0.716095    0.503284     0.007504
PD2728   PD        0.353929    0.749167    0.538775     0.005394
AU2729   AU        0.392265    0.715619    0.538993     0.007504
AU2730   AU        0.388699    0.750588    0.502631     0.007504
AU2731   AU        0.426635    0.716122    0.499976     0.007504
AU2732   AU        0.426110    0.752342    0.539529     0.007504
AU2733   AU        0.462030    0.719498    0.535882     0.007504
PD2734   PD        0.463631    0.753660    0.501302     0.005394
PD2735   PD        0.498087    0.715818    0.500090     0.005394
AU2736   AU        0.501445    0.749729    0.537314     0.007504
PD2737   PD        0.534865    0.715060    0.537573     0.005394
PD2738   PD        0.539030    0.747621    0.499876     0.005394
PD2739   PD        0.574629    0.715745    0.502378     0.005394
AU2740   AU        0.571627    0.751028    0.535213     0.007504
PD2741   PD        0.605630    0.712433    0.537462     0.005394
PD2742   PD        0.606245    0.750877    0.503245     0.005394
PD2743   PD        0.640975    0.715741    0.502892     0.005394
PD2744   PD        0.641690    0.748157    0.537701     0.005394
PD2745   PD        0.675499    0.714049    0.539340     0.005394
AU2746   AU        0.680163    0.747293    0.504839     0.007504
AU2747   AU        0.712449    0.714257    0.504589     0.007504
PD2748   PD        0.215527    0.786141    0.500541     0.005394
PD2749   PD        0.248824    0.784637    0.535741     0.005394
AU2750   AU        0.250507    0.821406    0.499008     0.007504
AU2751   AU        0.288074    0.786226    0.498980     0.007504
PD2752   PD        0.285634    0.820421    0.539348     0.005394
PD2753   PD        0.320395    0.786320    0.539233     0.005394
PD2754   PD        0.321009    0.820807    0.501722     0.005394
AU2755   AU        0.354578    0.787576    0.502054     0.007504
AU2756   AU        0.356030    0.823820    0.538037     0.007504
AU2757   AU        0.389696    0.785394    0.538976     0.007504
PD2758   PD        0.391651    0.822722    0.502626     0.005394
AU2759   AU        0.426285    0.784822    0.502531     0.007504
AU2760   AU        0.427006    0.823303    0.538293     0.007504
AU2761   AU        0.461464    0.787039    0.537187     0.007504
PD2762   PD        0.461911    0.819433    0.501566     0.005394
PD2763   PD        0.499635    0.785521    0.501981     0.005394
AU2764   AU        0.500605    0.819409    0.537239     0.007504
AU2765   AU        0.536075    0.784509    0.537024     0.007504
AU2766   AU        0.539169    0.820543    0.499984     0.007504
PD2767   PD        0.574819    0.788501    0.501478     0.005394
PD2768   PD        0.570491    0.819405    0.537988     0.005394
AU2769   AU        0.607255    0.786621    0.538720     0.007504
AU2770   AU        0.613097    0.821462    0.498948     0.007504
PD2771   PD        0.645789    0.784129    0.504390     0.005394
PD2772   PD        0.426480    0.855630    0.500569     0.005394
PD2773   PD        0.328725    0.039436    0.568711     0.005394
PD2774   PD        0.361100    0.039942    0.605744     0.005394
PD2775   PD        0.395283    0.039901    0.572324     0.005394
PD2776   PD        0.429383    0.041408    0.605411     0.005394
PD2777   PD        0.465117    0.039394    0.569714     0.005394
PD2778   PD        0.501215    0.041516    0.603903     0.005394
AU2779   AU        0.539039    0.037440    0.571306     0.007504
AU2780   AU        0.182464    0.109080    0.569592     0.007504
PD2781   PD        0.217553    0.111020    0.606057     0.005394
AU2782   AU        0.248713    0.072628    0.604643     0.007504
AU2783   AU        0.253362    0.108496    0.571061     0.007504
AU2784   AU        0.288524    0.072090    0.569942     0.007504
AU2785   AU        0.288692    0.107001    0.606461     0.007504
AU2786   AU        0.326155    0.073503    0.605524     0.007504
AU2787   AU        0.324330    0.108450    0.568320     0.007504
PD2788   PD        0.362641    0.075042    0.568707     0.005394
AU2789   AU        0.361524    0.109329    0.603772     0.007504
AU2790   AU        0.397083    0.076144    0.605554     0.007504
AU2791   AU        0.396967    0.110410    0.568954     0.007504
PD2792   PD        0.430723    0.074119    0.569774     0.005394
AU2793   AU        0.431685    0.111898    0.605553     0.007504
PD2794   PD        0.465072    0.076323    0.603520     0.005394
PD2795   PD        0.465856    0.112910    0.568812     0.005394
PD2796   PD        0.501686    0.077165    0.571815     0.005394
PD2797   PD        0.500148    0.111496    0.605095     0.005394
PD2798   PD        0.537127    0.078733    0.603228     0.005394
AU2799   AU        0.534231    0.114089    0.569937     0.007504
PD2800   PD        0.569572    0.075291    0.568934     0.005394
PD2801   PD        0.573238    0.111275    0.604470     0.005394
PD2802   PD        0.601122    0.072496    0.605906     0.005394
AU2803   AU        0.607274    0.109547    0.570324     0.007504
AU2804   AU        0.644363    0.108300    0.605563     0.007504
AU2805   AU        0.677322    0.108640    0.567259     0.007504
AU2806   AU        0.109688    0.180260    0.569528     0.007504
PD2807   PD        0.145827    0.147071    0.569326     0.005394
PD2808   PD        0.145792    0.181961    0.604374     0.005394
PD2809   PD        0.179575    0.146766    0.605207     0.005394
PD2810   PD        0.183935    0.178891    0.570760     0.005394
AU2811   AU        0.217798    0.145268    0.570549     0.007504
PD2812   PD        0.217641    0.180962    0.604554     0.005394
PD2813   PD        0.254577    0.146304    0.604774     0.005394
PD2814   PD        0.251637    0.178739    0.570110     0.005394
AU2815   AU        0.290338    0.143773    0.569561     0.007504
AU2816   AU        0.288459    0.182757    0.603906     0.007504
AU2817   AU        0.325905    0.146546    0.604868     0.007504
PD2818   PD        0.322806    0.182375    0.571755     0.005394
AU2819   AU        0.358496    0.145301    0.568997     0.007504
AU2820   AU        0.361518    0.180286    0.605565     0.007504
PD2821   PD        0.394715    0.147277    0.604119     0.005394
PD2822   PD        0.398055    0.181574    0.570358     0.005394
PD2823   PD        0.431854    0.146688    0.569810     0.005394
PD2824   PD        0.430877    0.181227    0.604983     0.005394
PD2825   PD        0.465274    0.146155    0.604550     0.005394
PD2826   PD        0.465281    0.183699    0.568847     0.005394
PD2827   PD        0.500776    0.150343    0.569995     0.005394
AU2828   AU        0.501080    0.181425    0.607520     0.007504
PD2829   PD        0.538273    0.145355    0.605356     0.005394
PD2830   PD        0.535724    0.182570    0.571948     0.005394
PD2831   PD        0.572134    0.146724    0.568857     0.005394
PD2832   PD        0.573439    0.183741    0.606092     0.005394
PD2833   PD        0.609737    0.143165    0.604326     0.005394
AU2834   AU        0.606850    0.180526    0.567994     0.007504
AU2835   AU        0.642903    0.146964    0.569892     0.007504
PD2836   PD        0.644040    0.181233    0.606216     0.005394
AU2837   AU        0.679784    0.144798    0.608305     0.007504
PD2838   PD        0.678886    0.180742    0.569264     0.005394
AU2839   AU        0.713527    0.146387    0.570618     0.007504
AU2840   AU        0.714771    0.179430    0.607864     0.007504
PD2841   PD        0.749532    0.182148    0.571584     0.005394
PD2842   PD        0.076393    0.254292    0.604925     0.005394
AU2843   AU        0.107629    0.215576    0.605326     0.007504
AU2844   AU        0.112339    0.251061    0.570180     0.007504
PD2845   PD        0.146376    0.216317    0.570479     0.005394
PD2846   PD        0.147900    0.249804    0.604788     0.005394
PD2847   PD        0.183248    0.216306    0.602237     0.005394
AU2848   AU        0.182335    0.250472    0.569827     0.007504
PD2849   PD        0.220252    0.213198    0.568657     0.005394
PD2850   PD        0.218162    0.250504    0.605043     0.005394
PD2851   PD        0.252996    0.213147    0.607193     0.005394
PD2852   PD        0.253535    0.253792    0.568280     0.005394
AU2853   AU        0.288827    0.217667    0.570269     0.007504
AU2854   AU        0.289425    0.251879    0.604578     0.007504
AU2855   AU        0.327399    0.215692    0.605929     0.007504
PD2856   PD        0.324418    0.253135    0.570626     0.005394
PD2857   PD        0.361703    0.215860    0.569567     0.005394
AU2858   AU        0.361860    0.252209    0.605721     0.007504
AU2859   AU        0.396338    0.216839    0.605913     0.007504
PD2860   PD        0.395440    0.251808    0.570889     0.005394
PD2861   PD        0.431370    0.217598    0.567746     0.005394
PD2862   PD        0.428789    0.252407    0.606012     0.005394
AU2863   AU        0.463680    0.217018    0.604917     0.007504
AU2864   AU        0.464522    0.252984    0.570585     0.007504
PD2865   PD        0.500076    0.217521    0.570217     0.005394
PD2866   PD        0.502924    0.253156    0.608110     0.005394
PD2867   PD        0.538377    0.218783    0.606509     0.005394
PD2868   PD        0.535718    0.251866    0.571576     0.005394
PD2869   PD        0.573266    0.217079    0.569277     0.005394
AU2870   AU        0.571867    0.253104    0.605678     0.007504
AU2871   AU        0.607744    0.215870    0.605890     0.007504
AU2872   AU        0.606749    0.253380    0.570946     0.007504
AU2873   AU        0.642222    0.217257    0.570585     0.007504
PD2874   PD        0.641501    0.251493    0.605951     0.005394
AU2875   AU        0.676630    0.217091    0.605767     0.007504
AU2876   AU        0.678734    0.253280    0.572303     0.007504
AU2877   AU        0.712538    0.215612    0.568996     0.007504
AU2878   AU        0.715807    0.253226    0.606423     0.007504
AU2879   AU        0.750747    0.215288    0.607453     0.007504
AU2880   AU        0.751911    0.252243    0.570887     0.007504
AU2881   AU        0.787628    0.250996    0.607313     0.007504
AU2882   AU        0.041448    0.320413    0.571459     0.007504
PD2883   PD        0.077304    0.285663    0.569980     0.005394
PD2884   PD        0.076711    0.320540    0.606620     0.005394
AU2885   AU        0.113348    0.285772    0.605795     0.007504
PD2886   PD        0.110818    0.322662    0.568889     0.005394
PD2887   PD        0.147474    0.286187    0.570409     0.005394
PD2888   PD        0.147888    0.322249    0.606357     0.005394
PD2889   PD        0.182001    0.288206    0.604599     0.005394
AU2890   AU        0.177662    0.325191    0.568933     0.007504
AU2891   AU        0.216764    0.287771    0.570566     0.007504
AU2892   AU        0.216323    0.321689    0.606466     0.007504
AU2893   AU        0.254924    0.289370    0.602518     0.007504
AU2894   AU        0.251949    0.324859    0.569589     0.007504
AU2895   AU        0.289511    0.286810    0.569267     0.007504
AU2896   AU        0.288387    0.327303    0.608292     0.007504
AU2897   AU        0.323182    0.289121    0.604997     0.007504
PD2898   PD        0.324794    0.325264    0.569531     0.005394
PD2899   PD        0.360980    0.289515    0.570764     0.005394
PD2900   PD        0.359449    0.323842    0.606127     0.005394
AU2901   AU        0.394828    0.287947    0.608532     0.007504
AU2902   AU        0.394962    0.325290    0.567927     0.007504
AU2903   AU        0.431203    0.289799    0.569259     0.007504
AU2904   AU        0.430306    0.323294    0.604873     0.007504
AU2905   AU        0.466159    0.286368    0.606658     0.007504
AU2906   AU        0.466900    0.323073    0.574021     0.007504
AU2907   AU        0.501108    0.286863    0.571912     0.007504
PD2908   PD        0.502314    0.322876    0.608971     0.005394
PD2909   PD        0.536917    0.287710    0.605641     0.005394
PD2910   PD        0.536925    0.324987    0.573234     0.005394
AU2911   AU        0.572527    0.288269    0.573154     0.007504
AU2912   AU        0.572117    0.324806    0.605523     0.007504
PD2913   PD        0.611490    0.288664    0.607284     0.005394
AU2914   AU        0.609128    0.325992    0.571375     0.007504
PD2915   PD        0.644461    0.286111    0.571960     0.005394
AU2916   AU        0.646020    0.322964    0.607973     0.007504
PD2917   PD        0.679103    0.287467    0.607246     0.005394
PD2918   PD        0.679830    0.322545    0.572839     0.005394
PD2919   PD        0.712586    0.288813    0.572603     0.005394
AU2920   AU        0.715949    0.322507    0.611638     0.007504
AU2921   AU        0.751242    0.285335    0.606320     0.007504
AU2922   AU        0.748288    0.323269    0.570730     0.007504
PD2923   PD        0.786396    0.286784    0.573825     0.005394
PD2924   PD        0.783522    0.324378    0.608632     0.005394
PD2925   PD        0.820182    0.324435    0.570744     0.005394
AU2926   AU        0.039781    0.357877    0.603707     0.007504
PD2927   PD        0.039895    0.392957    0.568997     0.005394
AU2928   AU        0.076607    0.357696    0.570053     0.007504
PD2929   PD        0.077083    0.393315    0.606411     0.005394
AU2930   AU        0.111585    0.356319    0.605144     0.007504
PD2931   PD        0.110047    0.396554    0.570108     0.005394
AU2932   AU        0.145226    0.359967    0.569183     0.007504
PD2933   PD        0.144593    0.395737    0.605784     0.005394
AU2934   AU        0.181084    0.358470    0.605630     0.007504
AU2935   AU        0.180201    0.396841    0.570348     0.007504
AU2936   AU        0.214918    0.360992    0.569889     0.007504
PD2937   PD        0.214604    0.393772    0.608136     0.005394
AU2938   AU        0.252186    0.360227    0.604747     0.007504
PD2939   PD        0.249788    0.394623    0.567697     0.005394
PD2940   PD        0.287126    0.363091    0.567934     0.005394
PD2941   PD        0.288115    0.393996    0.604667     0.005394
PD2942   PD        0.325612    0.359020    0.605977     0.005394
PD2943   PD        0.327167    0.394502    0.570168     0.005394
AU2944   AU        0.360303    0.359720    0.572234     0.007504
PD2945   PD        0.359049    0.394424    0.607104     0.005394
PD2946   PD        0.396809    0.360585    0.607024     0.005394
AU2947   AU        0.393955    0.397479    0.572278     0.007504
AU2948   AU        0.433361    0.358333    0.570113     0.007504
AU2949   AU        0.430730    0.395874    0.607527     0.007504
AU2950   AU        0.466584    0.359747    0.609007     0.007504
AU2951   AU        0.466274    0.395479    0.573994     0.007504
AU2952   AU        0.501576    0.359231    0.573055     0.007504
AU2953   AU        0.501972    0.394753    0.608843     0.007504
PD2954   PD        0.536371    0.360620    0.608699     0.005394
AU2955   AU        0.537101    0.393830    0.572926     0.007504
PD2956   PD        0.571318    0.358811    0.570208     0.005394
AU2957   AU        0.573868    0.392764    0.604568     0.007504
PD2958   PD        0.609449    0.357835    0.608521     0.005394
AU2959   AU        0.607873    0.394027    0.570850     0.007504
AU2960   AU        0.645603    0.358760    0.570382     0.007504
AU2961   AU        0.643644    0.394241    0.608977     0.007504
AU2962   AU        0.680519    0.359479    0.606287     0.007504
AU2963   AU        0.679531    0.396743    0.570320     0.007504
AU2964   AU        0.713936    0.358367    0.571576     0.007504
PD2965   PD        0.714034    0.396308    0.609406     0.005394
AU2966   AU        0.748151    0.358863    0.609954     0.007504
PD2967   PD        0.748480    0.395061    0.573162     0.005394
PD2968   PD        0.782778    0.359235    0.573388     0.005394
PD2969   PD        0.784587    0.395817    0.607813     0.005394
AU2970   AU        0.821861    0.358211    0.607885     0.007504
AU2971   AU        0.822321    0.393464    0.573247     0.007504
AU2972   AU        0.034685    0.428560    0.608179     0.007504
AU2973   AU        0.034843    0.465538    0.570175     0.007504
AU2974   AU        0.072349    0.429499    0.570941     0.007504
AU2975   AU        0.070955    0.463844    0.606823     0.007504
PD2976   PD        0.110815    0.429796    0.606827     0.005394
PD2977   PD        0.110218    0.465391    0.570355     0.005394
AU2978   AU        0.144425    0.429189    0.570256     0.007504
PD2979   PD        0.145214    0.463863    0.607386     0.005394
AU2980   AU        0.180889    0.430752    0.606113     0.007504
PD2981   PD        0.180728    0.463651    0.569527     0.005394
PD2982   PD        0.215486    0.429337    0.568925     0.005394
PD2983   PD        0.216868    0.464515    0.606125     0.005394
AU2984   AU        0.250711    0.429799    0.605771     0.007504
AU2985   AU        0.254083    0.466622    0.569422     0.007504
AU2986   AU        0.288270    0.425918    0.569947     0.007504
AU2987   AU        0.288380    0.465006    0.607146     0.007504
AU2988   AU        0.323697    0.429074    0.605608     0.007504
PD2989   PD        0.320776    0.466105    0.569912     0.005394
AU2990   AU        0.358486    0.432962    0.571618     0.007504
AU2991   AU        0.356988    0.466212    0.607851     0.007504
AU2992   AU        0.393831    0.432616    0.609126     0.007504
AU2993   AU        0.392590    0.466939    0.573078     0.007504
AU2994   AU        0.429596    0.433892    0.572539     0.007504
PD2995   PD        0.430433    0.463663    0.610156     0.005394
AU2996   AU        0.466463    0.430854    0.608859     0.007504
AU2997   AU        0.464633    0.466895    0.575213     0.007504
PD2998   PD        0.500523    0.430627    0.571820     0.005394
PD2999   PD        0.503124    0.467448    0.607951     0.005394
AU3000   AU        0.536442    0.430420    0.607903     0.007504
PD3001   PD        0.535524    0.466172    0.573541     0.005394
AU3002   AU        0.573875    0.429563    0.570970     0.007504
AU3003   AU        0.570850    0.465156    0.606150     0.007504
AU3004   AU        0.608885    0.428478    0.607784     0.007504
AU3005   AU        0.607246    0.469038    0.574127     0.007504
PD3006   PD        0.645997    0.431191    0.573312     0.005394
AU3007   AU        0.641509    0.464305    0.609087     0.007504
PD3008   PD        0.679662    0.430289    0.609781     0.005394
PD3009   PD        0.681096    0.467237    0.572596     0.005394
PD3010   PD        0.715084    0.431951    0.573706     0.005394
AU3011   AU        0.713795    0.468665    0.609413     0.007504
AU3012   AU        0.752013    0.432065    0.608692     0.007504
AU3013   AU        0.751023    0.466776    0.574588     0.007504
PD3014   PD        0.785885    0.431649    0.572216     0.005394
PD3015   PD        0.786957    0.466380    0.608932     0.005394
AU3016   AU        0.822646    0.428864    0.605878     0.007504
PD3017   PD        0.817758    0.465296    0.570730     0.005394
AU3018   AU        0.035538    0.501738    0.607531     0.007504
PD3019   PD        0.036523    0.535163    0.571396     0.005394
AU3020   AU        0.071511    0.500380    0.571936     0.007504
PD3021   PD        0.072955    0.533986    0.606604     0.005394
PD3022   PD        0.111205    0.501750    0.605717     0.005394
AU3023   AU        0.111039    0.537488    0.570097     0.007504
AU3024   AU        0.146332    0.501815    0.570161     0.007504
AU3025   AU        0.146396    0.538680    0.607312     0.007504
PD3026   PD        0.178202    0.498666    0.607730     0.005394
AU3027   AU        0.180450    0.537004    0.568582     0.007504
AU3028   AU        0.213316    0.500747    0.571918     0.007504
PD3029   PD        0.213317    0.536178    0.605968     0.005394
PD3030   PD        0.250778    0.499121    0.608520     0.005394
AU3031   AU        0.249010    0.533647    0.572741     0.007504
PD3032   PD        0.287937    0.500803    0.573611     0.005394
PD3033   PD        0.286279    0.537205    0.607389     0.005394
AU3034   AU        0.321160    0.502496    0.607969     0.007504
PD3035   PD        0.321513    0.535634    0.571330     0.005394
AU3036   AU        0.356561    0.500285    0.572074     0.007504
AU3037   AU        0.355576    0.537120    0.604511     0.007504
PD3038   PD        0.392426    0.501830    0.606332     0.005394
PD3039   PD        0.393841    0.541151    0.571634     0.005394
AU3040   AU        0.429099    0.502839    0.576435     0.007504
AU3041   AU        0.428331    0.538846    0.609643     0.007504
PD3042   PD        0.465545    0.502205    0.611550     0.005394
AU3043   AU        0.461996    0.539812    0.574280     0.007504
AU3044   AU        0.496269    0.504251    0.574372     0.007504
AU3045   AU        0.500129    0.539679    0.608754     0.007504
PD3046   PD        0.535091    0.503513    0.606181     0.005394
PD3047   PD        0.534764    0.539018    0.572128     0.005394
AU3048   AU        0.571065    0.503261    0.571308     0.007504
PD3049   PD        0.570424    0.535898    0.606408     0.005394
PD3050   PD        0.607184    0.504646    0.608370     0.005394
PD3051   PD        0.605476    0.536854    0.572816     0.005394
PD3052   PD        0.644598    0.499961    0.573495     0.005394
PD3053   PD        0.643521    0.536234    0.607726     0.005394
AU3054   AU        0.679119    0.503839    0.607286     0.007504
AU3055   AU        0.678166    0.537099    0.571365     0.007504
PD3056   PD        0.716768    0.500343    0.571676     0.005394
AU3057   AU        0.713427    0.537737    0.608182     0.007504
PD3058   PD        0.751537    0.505841    0.608935     0.005394
PD3059   PD        0.750694    0.540290    0.574705     0.005394
PD3060   PD        0.786065    0.505444    0.573620     0.005394
AU3061   AU        0.785223    0.541009    0.608423     0.007504
PD3062   PD        0.819578    0.501208    0.607005     0.005394
PD3063   PD        0.822134    0.537443    0.573918     0.005394
AU3064   AU        0.071294    0.571215    0.572321     0.007504
AU3065   AU        0.072541    0.608530    0.606517     0.007504
AU3066   AU        0.107529    0.570665    0.606867     0.007504
AU3067   AU        0.108095    0.607346    0.571475     0.007504
AU3068   AU        0.146240    0.573893    0.571167     0.007504
AU3069   AU        0.142364    0.608546    0.607340     0.007504
AU3070   AU        0.180525    0.572524    0.608509     0.007504
AU3071   AU        0.181734    0.606103    0.571822     0.007504
PD3072   PD        0.216346    0.569812    0.571529     0.005394
AU3073   AU        0.214198    0.610957    0.610514     0.007504
AU3074   AU        0.251990    0.572430    0.607566     0.007504
AU3075   AU        0.250398    0.606216    0.571211     0.007504
AU3076   AU        0.285798    0.574645    0.571601     0.007504
PD3077   PD        0.285039    0.606604    0.607439     0.005394
AU3078   AU        0.322867    0.575454    0.607280     0.007504
AU3079   AU        0.323215    0.610651    0.571762     0.007504
AU3080   AU        0.357495    0.574295    0.573027     0.007504
PD3081   PD        0.359625    0.610010    0.609680     0.005394
PD3082   PD        0.394652    0.576063    0.608301     0.005394
AU3083   AU        0.392086    0.608511    0.570180     0.007504
PD3084   PD        0.428632    0.575792    0.574340     0.005394
PD3085   PD        0.428949    0.609510    0.611462     0.005394
PD3086   PD        0.464166    0.575766    0.607440     0.005394
AU3087   AU        0.462631    0.610266    0.574463     0.007504
AU3088   AU        0.500238    0.575314    0.575227     0.007504
AU3089   AU        0.498133    0.610703    0.610151     0.007504
PD3090   PD        0.533879    0.575594    0.609307     0.005394
PD3091   PD        0.534948    0.610953    0.575654     0.005394
AU3092   AU        0.572729    0.571572    0.573313     0.007504
AU3093   AU        0.570336    0.610704    0.610073     0.007504
PD3094   PD        0.605177    0.573584    0.608690     0.005394
PD3095   PD        0.605693    0.611208    0.574897     0.005394
PD3096   PD        0.641747    0.572943    0.574277     0.005394
PD3097   PD        0.640981    0.608516    0.606976     0.005394
AU3098   AU        0.677194    0.572449    0.607404     0.007504
PD3099   PD        0.678240    0.607078    0.574304     0.005394
AU3100   AU        0.713822    0.574324    0.571072     0.007504
PD3101   PD        0.713561    0.605760    0.608514     0.005394
AU3102   AU        0.749873    0.574285    0.609394     0.007504
PD3103   PD        0.749626    0.609266    0.573507     0.005394
AU3104   AU        0.786305    0.576183    0.571471     0.007504
PD3105   PD        0.783206    0.610051    0.608313     0.005394
AU3106   AU        0.107943    0.645635    0.604598     0.007504
AU3107   AU        0.110612    0.681904    0.572317     0.007504
AU3108   AU        0.144129    0.647167    0.574868     0.007504
PD3109   PD        0.145604    0.680524    0.610327     0.005394
AU3110   AU        0.180344    0.643676    0.610251     0.007504
AU3111   AU        0.180477    0.679571    0.572118     0.007504
AU3112   AU        0.215276    0.643704    0.573244     0.007504
AU3113   AU        0.216438    0.679239    0.610095     0.007504
PD3114   PD        0.249242    0.643448    0.610260     0.005394
AU3115   AU        0.249923    0.679424    0.571463     0.007504
AU3116   AU        0.285391    0.643256    0.570227     0.007504
AU3117   AU        0.283563    0.677381    0.607667     0.007504
PD3118   PD        0.321298    0.645107    0.612104     0.005394
AU3119   AU        0.319659    0.679506    0.574952     0.007504
AU3120   AU        0.357484    0.646415    0.572895     0.007504
AU3121   AU        0.356790    0.679158    0.610265     0.007504
AU3122   AU        0.392708    0.644276    0.608914     0.007504
PD3123   PD        0.390101    0.680842    0.573083     0.005394
AU3124   AU        0.426961    0.647165    0.572552     0.007504
AU3125   AU        0.429282    0.678873    0.611061     0.007504
PD3126   PD        0.462589    0.644668    0.609716     0.005394
PD3127   PD        0.463340    0.679995    0.573546     0.005394
AU3128   AU        0.497143    0.644377    0.573151     0.007504
PD3129   PD        0.498882    0.677912    0.608502     0.005394
PD3130   PD        0.533904    0.643112    0.610094     0.005394
PD3131   PD        0.533191    0.677626    0.573516     0.005394
AU3132   AU        0.569482    0.644939    0.574797     0.007504
PD3133   PD        0.570252    0.680988    0.609296     0.005394
PD3134   PD        0.606581    0.646148    0.610329     0.005394
AU3135   AU        0.605822    0.680139    0.572829     0.007504
AU3136   AU        0.639754    0.644682    0.573960     0.007504
AU3137   AU        0.640684    0.678660    0.610231     0.007504
AU3138   AU        0.677825    0.643915    0.609509     0.007504
AU3139   AU        0.676145    0.679600    0.574816     0.007504
AU3140   AU        0.712814    0.643635    0.574106     0.007504
AU3141   AU        0.714867    0.679223    0.610155     0.007504
PD3142   PD        0.746516    0.641866    0.610471     0.005394
AU3143   AU        0.749882    0.677688    0.574057     0.007504
PD3144   PD        0.145536    0.716820    0.570818     0.005394
AU3145   AU        0.178410    0.714719    0.607005     0.007504
PD3146   PD        0.182756    0.752148    0.569820     0.005394
PD3147   PD        0.217995    0.715266    0.570332     0.005394
PD3148   PD        0.215061    0.750859    0.608433     0.005394
PD3149   PD        0.248602    0.714677    0.607475     0.005394
AU3150   AU        0.249698    0.752444    0.574937     0.007504
AU3151   AU        0.285574    0.712126    0.572133     0.007504
PD3152   PD        0.285280    0.749610    0.608682     0.005394
PD3153   PD        0.321149    0.714107    0.610097     0.005394
AU3154   AU        0.320210    0.751829    0.575476     0.007504
PD3155   PD        0.354580    0.715562    0.573533     0.005394
AU3156   AU        0.357168    0.749367    0.611285     0.007504
PD3157   PD        0.394297    0.713739    0.610910     0.005394
AU3158   AU        0.391241    0.751734    0.575807     0.007504
AU3159   AU        0.427048    0.716373    0.575998     0.007504
AU3160   AU        0.426982    0.751954    0.609652     0.007504
AU3161   AU        0.463869    0.715306    0.608273     0.007504
PD3162   PD        0.463888    0.752381    0.573695     0.005394
AU3163   AU        0.500018    0.714887    0.572042     0.007504
PD3164   PD        0.497515    0.750383    0.609007     0.005394
AU3165   AU        0.533743    0.715851    0.605473     0.007504
AU3166   AU        0.535577    0.751412    0.573024     0.007504
AU3167   AU        0.568348    0.714409    0.572018     0.007504
AU3168   AU        0.570673    0.749431    0.607460     0.007504
PD3169   PD        0.604946    0.714521    0.606585     0.005394
PD3170   PD        0.604332    0.749008    0.571244     0.005394
PD3171   PD        0.641231    0.715204    0.573313     0.005394
PD3172   PD        0.642187    0.748597    0.606907     0.005394
AU3173   AU        0.678103    0.712171    0.610643     0.007504
PD3174   PD        0.677680    0.747846    0.573491     0.005394
PD3175   PD        0.713692    0.714190    0.575116     0.005394
AU3176   AU        0.247611    0.788971    0.607910     0.007504
AU3177   AU        0.285205    0.787426    0.574080     0.007504
AU3178   AU        0.319727    0.788911    0.609233     0.007504
AU3179   AU        0.320072    0.823251    0.573394     0.007504
AU3180   AU        0.354122    0.787910    0.573384     0.007504
PD3181   PD        0.357114    0.823627    0.608551     0.005394
AU3182   AU        0.390515    0.787238    0.609887     0.007504
PD3183   PD        0.390899    0.821619    0.573742     0.005394
AU3184   AU        0.427463    0.788203    0.573105     0.007504
PD3185   PD        0.426607    0.824532    0.608051     0.005394
AU3186   AU        0.462595    0.787765    0.608783     0.007504
AU3187   AU        0.465288    0.823474    0.573237     0.007504
PD3188   PD        0.500435    0.787035    0.572408     0.005394
PD3189   PD        0.497794    0.821842    0.609015     0.005394
AU3190   AU        0.535039    0.789980    0.609288     0.007504
AU3191   AU        0.536633    0.824747    0.572619     0.007504
PD3192   PD        0.571127    0.786218    0.573269     0.005394
PD3193   PD        0.608685    0.786827    0.606316     0.005394
PD3194   PD        0.251913    0.109376    0.638324     0.005394
AU3195   AU        0.289485    0.108683    0.675376     0.007504
PD3196   PD        0.325427    0.111913    0.639289     0.005394
PD3197   PD        0.357691    0.071898    0.642075     0.005394
AU3198   AU        0.360212    0.107956    0.677117     0.007504
AU3199   AU        0.395915    0.070130    0.676836     0.007504
AU3200   AU        0.395341    0.109660    0.643324     0.007504
PD3201   PD        0.428914    0.074493    0.640314     0.005394
PD3202   PD        0.432189    0.109501    0.674586     0.005394
AU3203   AU        0.466505    0.072600    0.676585     0.007504
AU3204   AU        0.466331    0.108288    0.641709     0.007504
PD3205   PD        0.503170    0.074065    0.639672     0.005394
PD3206   PD        0.502724    0.109744    0.673587     0.005394
PD3207   PD        0.537351    0.110711    0.639935     0.005394
AU3208   AU        0.569948    0.111495    0.678130     0.007504
AU3209   AU        0.607806    0.111010    0.641112     0.007504
AU3210   AU        0.181772    0.181784    0.638805     0.007504
AU3211   AU        0.217702    0.145877    0.640844     0.007504
PD3212   PD        0.218115    0.179990    0.676274     0.005394
AU3213   AU        0.253848    0.143130    0.677577     0.007504
AU3214   AU        0.252858    0.179767    0.641761     0.007504
AU3215   AU        0.287525    0.145180    0.641088     0.007504
AU3216   AU        0.288265    0.180434    0.677320     0.007504
AU3217   AU        0.325707    0.144735    0.675699     0.007504
AU3218   AU        0.324136    0.181395    0.641688     0.007504
AU3219   AU        0.361487    0.146470    0.639481     0.007504
PD3220   PD        0.360433    0.180342    0.677760     0.005394
AU3221   AU        0.395670    0.142633    0.678528     0.007504
AU3222   AU        0.393411    0.181737    0.642988     0.007504
PD3223   PD        0.429769    0.146881    0.641637     0.005394
PD3224   PD        0.429442    0.179216    0.677716     0.005394
AU3225   AU        0.465758    0.145673    0.674805     0.007504
PD3226   PD        0.465790    0.178945    0.641020     0.005394
PD3227   PD        0.499644    0.146984    0.639206     0.005394
AU3228   AU        0.500555    0.181546    0.675425     0.007504
AU3229   AU        0.538049    0.145968    0.674918     0.007504
PD3230   PD        0.538113    0.181145    0.639867     0.005394
AU3231   AU        0.572547    0.146584    0.638969     0.007504
PD3232   PD        0.571960    0.180779    0.676031     0.005394
PD3233   PD        0.607371    0.147709    0.677932     0.005394
AU3234   AU        0.607970    0.180573    0.641698     0.007504
AU3235   AU        0.644882    0.146511    0.645265     0.007504
PD3236   PD        0.644764    0.182322    0.677074     0.005394
PD3237   PD        0.678297    0.181258    0.640070     0.005394
PD3238   PD        0.109564    0.248951    0.642246     0.005394
PD3239   PD        0.145540    0.217885    0.640104     0.005394
AU3240   AU        0.143197    0.250589    0.678682     0.007504
PD3241   PD        0.181082    0.215647    0.674597     0.005394
AU3242   AU        0.181913    0.253037    0.639391     0.007504
PD3243   PD        0.217266    0.215746    0.639652     0.005394
AU3244   AU        0.213978    0.251284    0.678015     0.007504
AU3245   AU        0.253779    0.215765    0.676751     0.007504
AU3246   AU        0.251261    0.251183    0.640232     0.007504
AU3247   AU        0.288107    0.216381    0.639111     0.007504
PD3248   PD        0.287214    0.251757    0.674786     0.005394
AU3249   AU        0.325176    0.215905    0.677023     0.007504
AU3250   AU        0.325255    0.251955    0.640517     0.007504
PD3251   PD        0.360053    0.215892    0.641314     0.005394
AU3252   AU        0.361857    0.252599    0.677141     0.007504
PD3253   PD        0.395800    0.215756    0.674974     0.005394
PD3254   PD        0.395474    0.252194    0.642265     0.005394
AU3255   AU        0.432197    0.216174    0.640984     0.007504
AU3256   AU        0.433262    0.251145    0.677041     0.007504
PD3257   PD        0.465943    0.214602    0.677924     0.005394
AU3258   AU        0.464787    0.252522    0.640954     0.007504
PD3259   PD        0.499534    0.216537    0.641883     0.005394
AU3260   AU        0.501921    0.249314    0.675202     0.007504
AU3261   AU        0.535568    0.216662    0.676251     0.007504
PD3262   PD        0.538096    0.252630    0.642826     0.005394
PD3263   PD        0.573246    0.217728    0.640891     0.005394
AU3264   AU        0.573602    0.250232    0.678662     0.007504
AU3265   AU        0.609046    0.216286    0.678703     0.007504
PD3266   PD        0.608455    0.252328    0.641952     0.005394
PD3267   PD        0.643279    0.216812    0.640078     0.005394
PD3268   PD        0.640540    0.253945    0.677847     0.005394
PD3269   PD        0.678986    0.218228    0.673128     0.005394
AU3270   AU        0.675938    0.253566    0.641201     0.007504
PD3271   PD        0.714598    0.219590    0.640280     0.005394
AU3272   AU        0.714090    0.252335    0.678790     0.007504
AU3273   AU        0.755185    0.251978    0.643794     0.007504
PD3274   PD        0.109430    0.288322    0.675784     0.005394
PD3275   PD        0.111787    0.320675    0.640288     0.005394
PD3276   PD        0.145140    0.283279    0.641942     0.005394
PD3277   PD        0.147057    0.319992    0.673090     0.005394
PD3278   PD        0.179563    0.284460    0.678536     0.005394
PD3279   PD        0.180885    0.320143    0.641262     0.005394
AU3280   AU        0.220362    0.287012    0.638358     0.007504
AU3281   AU        0.215507    0.323293    0.676259     0.007504
PD3282   PD        0.252743    0.287564    0.676187     0.005394
PD3283   PD        0.252819    0.324048    0.641889     0.005394
AU3284   AU        0.287954    0.288856    0.641390     0.007504
PD3285   PD        0.289855    0.320670    0.677015     0.005394
AU3286   AU        0.324056    0.288770    0.676694     0.007504
AU3287   AU        0.324269    0.324017    0.642644     0.007504
AU3288   AU        0.359453    0.287992    0.640664     0.007504
AU3289   AU        0.360575    0.324572    0.678834     0.007504
AU3290   AU        0.395075    0.289074    0.673835     0.007504
PD3291   PD        0.393762    0.326183    0.640253     0.005394
AU3292   AU        0.431825    0.289236    0.639978     0.007504
AU3293   AU        0.429849    0.322845    0.677230     0.007504
AU3294   AU        0.466260    0.289176    0.677882     0.007504
PD3295   PD        0.466381    0.323670    0.641831     0.005394
AU3296   AU        0.501829    0.287895    0.640339     0.007504
PD3297   PD        0.503418    0.321982    0.677530     0.005394
AU3298   AU        0.539958    0.287236    0.676349     0.007504
PD3299   PD        0.539211    0.325734    0.642438     0.005394
AU3300   AU        0.574362    0.288007    0.641526     0.007504
AU3301   AU        0.571572    0.324175    0.678640     0.007504
AU3302   AU        0.606950    0.288970    0.679252     0.007504
PD3303   PD        0.609493    0.321103    0.644188     0.005394
PD3304   PD        0.643525    0.289867    0.644583     0.005394
PD3305   PD        0.643447    0.322967    0.678850     0.005394
PD3306   PD        0.678290    0.287521    0.678642     0.005394
PD3307   PD        0.680951    0.321911    0.642551     0.005394
PD3308   PD        0.715139    0.286307    0.641991     0.005394
PD3309   PD        0.714663    0.320199    0.677341     0.005394
AU3310   AU        0.750424    0.288390    0.678295     0.007504
PD3311   PD        0.751092    0.323170    0.644535     0.005394
AU3312   AU        0.075159    0.356945    0.640116     0.007504
PD3313   PD        0.072747    0.392411    0.673438     0.005394
AU3314   AU        0.109152    0.358843    0.675659     0.007504
PD3315   PD        0.110984    0.392945    0.640704     0.005394
PD3316   PD        0.144107    0.357778    0.641972     0.005394
PD3317   PD        0.145453    0.392640    0.677563     0.005394
AU3318   AU        0.182879    0.359289    0.677649     0.007504
AU3319   AU        0.178821    0.393881    0.644553     0.007504
AU3320   AU        0.218307    0.359511    0.642123     0.007504
AU3321   AU        0.214674    0.394605    0.676498     0.007504
AU3322   AU        0.250701    0.358555    0.677079     0.007504
AU3323   AU        0.251862    0.395865    0.641181     0.007504
PD3324   PD        0.288963    0.362063    0.642898     0.005394
AU3325   AU        0.286656    0.394978    0.681373     0.007504
PD3326   PD        0.326372    0.359277    0.676196     0.005394
PD3327   PD        0.324756    0.394661    0.641158     0.005394
PD3328   PD        0.360739    0.359678    0.641688     0.005394
AU3329   AU        0.361122    0.394581    0.679366     0.007504
PD3330   PD        0.396223    0.359323    0.678330     0.005394
PD3331   PD        0.395394    0.391618    0.642306     0.005394
PD3332   PD        0.430693    0.357767    0.642178     0.005394
PD3333   PD        0.427407    0.395057    0.680173     0.005394
PD3334   PD        0.467304    0.355356    0.677467     0.005394
AU3335   AU        0.465592    0.396515    0.643923     0.007504
PD3336   PD        0.500286    0.358422    0.644049     0.005394
AU3337   AU        0.502588    0.397466    0.675582     0.007504
AU3338   AU        0.535665    0.358949    0.677206     0.007504
AU3339   AU        0.537941    0.392985    0.643915     0.007504
AU3340   AU        0.573645    0.358520    0.642328     0.007504
PD3341   PD        0.571680    0.392491    0.679978     0.005394
AU3342   AU        0.607710    0.359471    0.677131     0.007504
PD3343   PD        0.608922    0.393888    0.643102     0.005394
AU3344   AU        0.643896    0.359218    0.644724     0.007504
PD3345   PD        0.644029    0.391914    0.681548     0.005394
AU3346   AU        0.678211    0.357594    0.679268     0.007504
AU3347   AU        0.680736    0.393011    0.645711     0.007504
PD3348   PD        0.715442    0.357620    0.644670     0.005394
AU3349   AU        0.714845    0.395137    0.680410     0.007504
AU3350   AU        0.748452    0.357500    0.680497     0.007504
PD3351   PD        0.750351    0.394849    0.643770     0.005394
AU3352   AU        0.787136    0.360203    0.643482     0.007504
PD3353   PD        0.782553    0.394486    0.681537     0.005394
PD3354   PD        0.074377    0.427301    0.637934     0.005394
AU3355   AU        0.067139    0.465121    0.672913     0.007504
AU3356   AU        0.106142    0.426853    0.675997     0.007504
AU3357   AU        0.107230    0.464559    0.641010     0.007504
PD3358   PD        0.142515    0.430359    0.642296     0.005394
AU3359   AU        0.143436    0.466006    0.676057     0.007504
PD3360   PD        0.177645    0.429091    0.676654     0.005394
PD3361   PD        0.181576    0.465337    0.642166     0.005394
AU3362   AU        0.214547    0.429239    0.641338     0.007504
AU3363   AU        0.216814    0.463049    0.676274     0.007504
PD3364   PD        0.252320    0.429625    0.678685     0.005394
PD3365   PD        0.253494    0.463727    0.642510     0.005394
AU3366   AU        0.288302    0.429445    0.641578     0.007504
AU3367   AU        0.287033    0.466458    0.679160     0.007504
AU3368   AU        0.321843    0.428467    0.678657     0.007504
PD3369   PD        0.322186    0.465863    0.645305     0.005394
AU3370   AU        0.359281    0.429129    0.642313     0.007504
AU3371   AU        0.356040    0.463379    0.679806     0.007504
PD3372   PD        0.394440    0.429544    0.680006     0.005394
PD3373   PD        0.396836    0.463679    0.645618     0.005394
AU3374   AU        0.430529    0.429777    0.647136     0.007504
PD3375   PD        0.428114    0.465348    0.680728     0.005394
AU3376   AU        0.465709    0.428654    0.680039     0.007504
PD3377   PD        0.465845    0.465238    0.643332     0.005394
AU3378   AU        0.501602    0.430427    0.641783     0.007504
AU3379   AU        0.500989    0.464934    0.678755     0.007504
PD3380   PD        0.539400    0.429133    0.677807     0.005394
PD3381   PD        0.536430    0.465746    0.643005     0.005394
AU3382   AU        0.574254    0.427746    0.642722     0.007504
PD3383   PD        0.571169    0.465899    0.677863     0.005394
PD3384   PD        0.605369    0.429589    0.680216     0.005394
PD3385   PD        0.603749    0.465313    0.645629     0.005394
PD3386   PD        0.639841    0.426709    0.647481     0.005394
AU3387   AU        0.641884    0.466522    0.681292     0.007504
AU3388   AU        0.675566    0.430651    0.678675     0.007504
AU3389   AU        0.677751    0.465946    0.642780     0.007504
PD3390   PD        0.714971    0.429308    0.643206     0.005394
AU3391   AU        0.713638    0.467322    0.677402     0.007504
AU3392   AU        0.748626    0.431928    0.678622     0.007504
AU3393   AU        0.749295    0.468084    0.644232     0.007504
PD3394   PD        0.784550    0.429050    0.643763     0.005394
PD3395   PD        0.786433    0.467240    0.677689     0.005394
PD3396   PD        0.072889    0.499648    0.640576     0.005394
AU3397   AU        0.102752    0.498453    0.677737     0.007504
AU3398   AU        0.107039    0.535143    0.644078     0.007504
PD3399   PD        0.144017    0.499202    0.643954     0.005394
PD3400   PD        0.142812    0.534676    0.678137     0.005394
AU3401   AU        0.178775    0.498924    0.678739     0.007504
AU3402   AU        0.180872    0.533977    0.644304     0.007504
AU3403   AU        0.216240    0.501266    0.641694     0.007504
PD3404   PD        0.217226    0.535625    0.679488     0.005394
PD3405   PD        0.251360    0.499678    0.676959     0.005394
PD3406   PD        0.248777    0.535337    0.642433     0.005394
PD3407   PD        0.285361    0.500509    0.640462     0.005394
AU3408   AU        0.285671    0.536399    0.678083     0.007504
AU3409   AU        0.319194    0.501159    0.678526     0.007504
AU3410   AU        0.320598    0.534568    0.641855     0.007504
AU3411   AU        0.361041    0.499927    0.642336     0.007504
AU3412   AU        0.356906    0.536098    0.677190     0.007504
AU3413   AU        0.395110    0.500291    0.678959     0.007504
AU3414   AU        0.393767    0.536916    0.641172     0.007504
PD3415   PD        0.430561    0.498873    0.642454     0.005394
AU3416   AU        0.429227    0.535718    0.677856     0.007504
AU3417   AU        0.466155    0.499771    0.677920     0.007504
PD3418   PD        0.464479    0.536626    0.644412     0.005394
AU3419   AU        0.503295    0.503238    0.641362     0.007504
PD3420   PD        0.501139    0.534963    0.679526     0.005394
AU3421   AU        0.535097    0.499900    0.679888     0.007504
PD3422   PD        0.536341    0.538153    0.642934     0.005394
AU3423   AU        0.572780    0.500804    0.642259     0.007504
AU3424   AU        0.568692    0.535531    0.678515     0.007504
AU3425   AU        0.604326    0.500772    0.681194     0.007504
AU3426   AU        0.607934    0.537485    0.642267     0.007504
PD3427   PD        0.643134    0.500326    0.645313     0.005394
PD3428   PD        0.642202    0.534558    0.678005     0.005394
PD3429   PD        0.677925    0.499190    0.679463     0.005394
AU3430   AU        0.676336    0.535539    0.642730     0.007504
PD3431   PD        0.713027    0.506292    0.643847     0.005394
AU3432   AU        0.713871    0.539187    0.677957     0.007504
AU3433   AU        0.749375    0.502572    0.677902     0.007504
PD3434   PD        0.748014    0.539749    0.642259     0.005394
PD3435   PD        0.785555    0.502997    0.643348     0.005394
PD3436   PD        0.106837    0.570775    0.677053     0.005394
PD3437   PD        0.109896    0.608682    0.644106     0.005394
AU3438   AU        0.145593    0.571393    0.645187     0.007504
AU3439   AU        0.146611    0.606554    0.680361     0.007504
AU3440   AU        0.180492    0.572616    0.678061     0.007504
PD3441   PD        0.178336    0.605724    0.643321     0.005394
AU3442   AU        0.213770    0.571624    0.643624     0.007504
AU3443   AU        0.214360    0.607420    0.679368     0.007504
PD3444   PD        0.250310    0.570443    0.677845     0.005394
PD3445   PD        0.251704    0.608247    0.643599     0.005394
PD3446   PD        0.285688    0.569987    0.642168     0.005394
AU3447   AU        0.285208    0.607119    0.679029     0.007504
PD3448   PD        0.320498    0.571835    0.677738     0.005394
AU3449   AU        0.320965    0.607299    0.644055     0.007504
AU3450   AU        0.357650    0.571317    0.643349     0.007504
AU3451   AU        0.356705    0.608983    0.678871     0.007504
PD3452   PD        0.393392    0.572944    0.679550     0.005394
AU3453   AU        0.392516    0.608457    0.643596     0.007504
PD3454   PD        0.428577    0.573024    0.641670     0.005394
AU3455   AU        0.428509    0.606379    0.679322     0.007504
PD3456   PD        0.464865    0.571869    0.680772     0.005394
AU3457   AU        0.462809    0.608487    0.646217     0.007504
AU3458   AU        0.499658    0.574016    0.643890     0.007504
PD3459   PD        0.500180    0.605258    0.678816     0.005394
PD3460   PD        0.534986    0.571548    0.679426     0.005394
PD3461   PD        0.535256    0.609343    0.643986     0.005394
PD3462   PD        0.570212    0.571853    0.644176     0.005394
PD3463   PD        0.569525    0.607646    0.678368     0.005394
PD3464   PD        0.604600    0.570785    0.679591     0.005394
AU3465   AU        0.605267    0.606954    0.642352     0.007504
AU3466   AU        0.640605    0.571821    0.643360     0.007504
PD3467   PD        0.639831    0.608869    0.678224     0.005394
AU3468   AU        0.673508    0.571666    0.677475     0.007504
AU3469   AU        0.675973    0.606973    0.643265     0.007504
PD3470   PD        0.710980    0.572125    0.642827     0.005394
PD3471   PD        0.711732    0.605195    0.677244     0.005394
AU3472   AU        0.750236    0.571318    0.680794     0.007504
AU3473   AU        0.750645    0.608185    0.646687     0.007504
PD3474   PD        0.143636    0.641263    0.644287     0.005394
PD3475   PD        0.181947    0.642396    0.678270     0.005394
PD3476   PD        0.179874    0.680376    0.645386     0.005394
AU3477   AU        0.214903    0.644584    0.645995     0.007504
PD3478   PD        0.214465    0.680108    0.680854     0.005394
AU3479   AU        0.250880    0.644422    0.680362     0.007504
PD3480   PD        0.250179    0.679672    0.645669     0.005394
PD3481   PD        0.285837    0.644595    0.643912     0.005394
PD3482   PD        0.285967    0.678946    0.678815     0.005394
PD3483   PD        0.320682    0.644789    0.682905     0.005394
PD3484   PD        0.321723    0.679004    0.644715     0.005394
PD3485   PD        0.354636    0.643158    0.645473     0.005394
PD3486   PD        0.356948    0.677933    0.682742     0.005394
AU3487   AU        0.393786    0.644320    0.678280     0.007504
AU3488   AU        0.393480    0.679498    0.645253     0.007504
PD3489   PD        0.428549    0.643215    0.645218     0.005394
PD3490   PD        0.426339    0.677949    0.680549     0.005394
AU3491   AU        0.464219    0.643834    0.681539     0.007504
PD3492   PD        0.463817    0.677893    0.643779     0.005394
AU3493   AU        0.499353    0.643640    0.644998     0.007504
PD3494   PD        0.498157    0.679670    0.678760     0.005394
PD3495   PD        0.535861    0.642842    0.677977     0.005394
AU3496   AU        0.534979    0.679902    0.645069     0.007504
PD3497   PD        0.569446    0.645463    0.643625     0.005394
PD3498   PD        0.570724    0.680059    0.678594     0.005394
PD3499   PD        0.602097    0.642577    0.676143     0.005394
PD3500   PD        0.606857    0.679448    0.647031     0.005394
AU3501   AU        0.641843    0.643529    0.645252     0.007504
PD3502   PD        0.639115    0.678535    0.678985     0.005394
PD3503   PD        0.676461    0.640473    0.677907     0.005394
AU3504   AU        0.675427    0.679350    0.645997     0.007504
PD3505   PD        0.713112    0.641759    0.643703     0.005394
PD3506   PD        0.215391    0.714154    0.642130     0.005394
AU3507   AU        0.249098    0.714872    0.679065     0.007504
AU3508   AU        0.248572    0.751255    0.643442     0.007504
AU3509   AU        0.283345    0.715212    0.642247     0.007504
AU3510   AU        0.286580    0.750088    0.678854     0.007504
AU3511   AU        0.320177    0.713605    0.680382     0.007504
AU3512   AU        0.320789    0.749935    0.643155     0.007504
AU3513   AU        0.357793    0.712363    0.646162     0.007504
AU3514   AU        0.356165    0.749640    0.680672     0.007504
PD3515   PD        0.392214    0.714189    0.679973     0.005394
PD3516   PD        0.390471    0.752022    0.647303     0.005394
AU3517   AU        0.427223    0.717413    0.645563     0.007504
PD3518   PD        0.427168    0.752926    0.680900     0.005394
AU3519   AU        0.463008    0.713366    0.677433     0.007504
AU3520   AU        0.461407    0.752448    0.643335     0.007504
PD3521   PD        0.498146    0.712627    0.641990     0.005394
PD3522   PD        0.498242    0.750421    0.677327     0.005394
PD3523   PD        0.534502    0.714031    0.677483     0.005394
AU3524   AU        0.534409    0.750716    0.642223     0.007504
AU3525   AU        0.570901    0.715825    0.643369     0.007504
PD3526   PD        0.569063    0.750961    0.677837     0.005394
AU3527   AU        0.603899    0.717224    0.680071     0.007504
AU3528   AU        0.607171    0.753016    0.645601     0.007504
AU3529   AU        0.639146    0.715608    0.643150     0.007504
PD3530   PD        0.354596    0.788175    0.644970     0.005394
AU3531   AU        0.390173    0.787618    0.680730     0.007504
AU3532   AU        0.424909    0.787043    0.645303     0.007504
AU3533   AU        0.463788    0.788391    0.682016     0.007504
PD3534   PD        0.497338    0.785300    0.643314     0.005394
PD3535   PD        0.400404    0.107799    0.712897     0.005394
PD3536   PD        0.467460    0.110385    0.710336     0.005394
PD3537   PD        0.250792    0.178561    0.714173     0.005394
AU3538   AU        0.291154    0.146242    0.714360     0.007504
AU3539   AU        0.288872    0.183066    0.749016     0.007504
AU3540   AU        0.324809    0.180572    0.713840     0.007504
AU3541   AU        0.358800    0.144935    0.713786     0.007504
PD3542   PD        0.360168    0.180927    0.749651     0.005394
PD3543   PD        0.394866    0.144890    0.744898     0.005394
AU3544   AU        0.395633    0.181890    0.712882     0.007504
AU3545   AU        0.432747    0.144808    0.712278     0.007504
PD3546   PD        0.431457    0.180092    0.744358     0.005394
PD3547   PD        0.469919    0.146752    0.745388     0.005394
AU3548   AU        0.467623    0.181666    0.710523     0.007504
AU3549   AU        0.506335    0.143022    0.711703     0.007504
PD3550   PD        0.503043    0.182714    0.749125     0.005394
AU3551   AU        0.537407    0.180363    0.712532     0.007504
PD3552   PD        0.571079    0.145213    0.712943     0.005394
AU3553   AU        0.572387    0.178007    0.748493     0.007504
AU3554   AU        0.610808    0.180574    0.713604     0.007504
AU3555   AU        0.179890    0.248031    0.714214     0.007504
AU3556   AU        0.217539    0.212985    0.709545     0.007504
AU3557   AU        0.218930    0.251428    0.748153     0.007504
PD3558   PD        0.253401    0.217179    0.746039     0.005394
AU3559   AU        0.252855    0.251794    0.710689     0.007504
AU3560   AU        0.289106    0.217987    0.711261     0.007504
AU3561   AU        0.287733    0.250432    0.747348     0.007504
PD3562   PD        0.324741    0.215434    0.747687     0.005394
AU3563   AU        0.327337    0.252216    0.713172     0.007504
AU3564   AU        0.360274    0.215830    0.715095     0.007504
PD3565   PD        0.359808    0.251054    0.750384     0.005394
AU3566   AU        0.395987    0.216950    0.748458     0.007504
PD3567   PD        0.393309    0.251473    0.713320     0.005394
PD3568   PD        0.430227    0.216951    0.710776     0.005394
PD3569   PD        0.434102    0.252758    0.748552     0.005394
AU3570   AU        0.465580    0.214904    0.749427     0.007504
PD3571   PD        0.468903    0.249755    0.712023     0.005394
PD3572   PD        0.504175    0.215780    0.714767     0.005394
PD3573   PD        0.501920    0.252084    0.749889     0.005394
PD3574   PD        0.539930    0.214858    0.749483     0.005394
PD3575   PD        0.536380    0.251410    0.711865     0.005394
PD3576   PD        0.570905    0.215279    0.713277     0.005394
PD3577   PD        0.570049    0.251372    0.749133     0.005394
PD3578   PD        0.606563    0.213135    0.748899     0.005394
AU3579   AU        0.607141    0.249727    0.715905     0.007504
PD3580   PD        0.644974    0.218302    0.709610     0.005394
AU3581   AU        0.642673    0.249290    0.751072     0.007504
AU3582   AU        0.679714    0.251860    0.712498     0.007504
AU3583   AU        0.144326    0.286016    0.713880     0.007504
PD3584   PD        0.182918    0.286164    0.746981     0.005394
AU3585   AU        0.179610    0.320871    0.712124     0.007504
AU3586   AU        0.214177    0.286960    0.711468     0.007504
PD3587   PD        0.219220    0.320045    0.746676     0.005394
PD3588   PD        0.254504    0.286869    0.745891     0.005394
AU3589   AU        0.252473    0.321774    0.709659     0.007504
PD3590   PD        0.288540    0.286234    0.710393     0.005394
AU3591   AU        0.287480    0.321194    0.748581     0.007504
PD3592   PD        0.322517    0.286079    0.748088     0.005394
AU3593   AU        0.323243    0.321466    0.713263     0.007504
PD3594   PD        0.361581    0.288862    0.711437     0.005394
PD3595   PD        0.357636    0.319392    0.746485     0.005394
AU3596   AU        0.394091    0.285463    0.748389     0.007504
PD3597   PD        0.396443    0.323149    0.713858     0.005394
PD3598   PD        0.429769    0.286604    0.713529     0.005394
PD3599   PD        0.430585    0.319415    0.748823     0.005394
AU3600   AU        0.468037    0.285904    0.749025     0.007504
AU3601   AU        0.466874    0.321486    0.714360     0.007504
PD3602   PD        0.502105    0.288843    0.710445     0.005394
AU3603   AU        0.500847    0.322352    0.748865     0.007504
AU3604   AU        0.535626    0.289851    0.747533     0.007504
PD3605   PD        0.535865    0.321703    0.712672     0.005394
AU3606   AU        0.574101    0.285211    0.712597     0.007504
AU3607   AU        0.573032    0.323293    0.747739     0.007504
PD3608   PD        0.607497    0.286025    0.750148     0.005394
AU3609   AU        0.607889    0.323146    0.711410     0.007504
AU3610   AU        0.643420    0.286875    0.713653     0.007504
PD3611   PD        0.643314    0.321855    0.748957     0.005394
AU3612   AU        0.678882    0.285652    0.748573     0.007504
PD3613   PD        0.678860    0.322133    0.713592     0.005394
PD3614   PD        0.712999    0.288635    0.712591     0.005394
PD3615   PD        0.110274    0.392692    0.713263     0.005394
PD3616   PD        0.145998    0.357899    0.713653     0.005394
PD3617   PD        0.148227    0.393779    0.746411     0.005394
PD3618   PD        0.179913    0.352857    0.749338     0.005394
PD3619   PD        0.178724    0.395011    0.710213     0.005394
PD3620   PD        0.215636    0.358100    0.712328     0.005394
AU3621   AU        0.213897    0.393583    0.747454     0.007504
PD3622   PD        0.253068    0.356212    0.746626     0.005394
PD3623   PD        0.250961    0.394527    0.713283     0.005394
AU3624   AU        0.290000    0.356525    0.709756     0.007504
AU3625   AU        0.287382    0.391640    0.748030     0.007504
PD3626   PD        0.322357    0.357221    0.747265     0.005394
PD3627   PD        0.323536    0.392429    0.713928     0.005394
PD3628   PD        0.360298    0.358612    0.712549     0.005394
AU3629   AU        0.359254    0.394181    0.748031     0.007504
AU3630   AU        0.394027    0.357399    0.748533     0.007504
PD3631   PD        0.394603    0.393817    0.713388     0.005394
AU3632   AU        0.433380    0.357106    0.713669     0.007504
PD3633   PD        0.428953    0.390279    0.750958     0.005394
PD3634   PD        0.466287    0.358903    0.750955     0.005394
AU3635   AU        0.464793    0.393387    0.712407     0.007504
PD3636   PD        0.501095    0.357344    0.714013     0.005394
AU3637   AU        0.501316    0.394176    0.749664     0.007504
AU3638   AU        0.535949    0.358637    0.751634     0.007504
PD3639   PD        0.535133    0.394399    0.712530     0.005394
AU3640   AU        0.572383    0.361524    0.714626     0.007504
PD3641   PD        0.569070    0.394897    0.748616     0.005394
PD3642   PD        0.606913    0.357808    0.749048     0.005394
AU3643   AU        0.608743    0.395887    0.716840     0.007504
AU3644   AU        0.644016    0.357513    0.714697     0.007504
AU3645   AU        0.644263    0.393874    0.749809     0.007504
PD3646   PD        0.678892    0.357635    0.749705     0.005394
AU3647   AU        0.678317    0.394192    0.713656     0.007504
PD3648   PD        0.712645    0.357697    0.713547     0.005394
AU3649   AU        0.714369    0.393243    0.751166     0.007504
PD3650   PD        0.750024    0.393711    0.716405     0.005394
AU3651   AU        0.104003    0.461611    0.713046     0.007504
PD3652   PD        0.143146    0.427784    0.710783     0.005394
AU3653   AU        0.143494    0.462679    0.747984     0.007504
PD3654   PD        0.179424    0.428233    0.745891     0.005394
PD3655   PD        0.178194    0.463102    0.710879     0.005394
AU3656   AU        0.215005    0.428357    0.711575     0.007504
AU3657   AU        0.213209    0.460518    0.746597     0.007504
PD3658   PD        0.251614    0.427597    0.749071     0.005394
AU3659   AU        0.252355    0.461150    0.714739     0.007504
PD3660   PD        0.286685    0.428942    0.717224     0.005394
PD3661   PD        0.285471    0.464984    0.750119     0.005394
PD3662   PD        0.322178    0.429109    0.749259     0.005394
PD3663   PD        0.323049    0.463848    0.715497     0.005394
AU3664   AU        0.358192    0.429254    0.712147     0.007504
AU3665   AU        0.358732    0.463395    0.752958     0.007504
AU3666   AU        0.394742    0.429444    0.750197     0.007504
PD3667   PD        0.392449    0.466662    0.715311     0.005394
AU3668   AU        0.428916    0.430471    0.712812     0.007504
AU3669   AU        0.429963    0.464533    0.750495     0.007504
AU3670   AU        0.462247    0.428097    0.749087     0.007504
PD3671   PD        0.464731    0.465720    0.714317     0.005394
PD3672   PD        0.500206    0.428021    0.713383     0.005394
AU3673   AU        0.500821    0.460849    0.749431     0.007504
PD3674   PD        0.536835    0.429932    0.751723     0.005394
PD3675   PD        0.536187    0.461199    0.712972     0.005394
PD3676   PD        0.570522    0.430546    0.713231     0.005394
PD3677   PD        0.566986    0.463361    0.750679     0.005394
AU3678   AU        0.608625    0.431115    0.749189     0.007504
AU3679   AU        0.605916    0.466313    0.714970     0.007504
PD3680   PD        0.643356    0.430772    0.714278     0.005394
AU3681   AU        0.643054    0.466090    0.749441     0.007504
PD3682   PD        0.680588    0.431926    0.748795     0.005394
PD3683   PD        0.679131    0.466523    0.713709     0.005394
AU3684   AU        0.715749    0.429855    0.716206     0.007504
PD3685   PD        0.711981    0.467918    0.746829     0.005394
AU3686   AU        0.751399    0.466065    0.714331     0.007504
AU3687   AU        0.142105    0.499985    0.712209     0.007504
PD3688   PD        0.178354    0.497276    0.749274     0.005394
AU3689   AU        0.178136    0.534275    0.714331     0.007504
AU3690   AU        0.216023    0.501198    0.713419     0.007504
PD3691   PD        0.210337    0.536067    0.749000     0.005394
AU3692   AU        0.247996    0.501975    0.749184     0.007504
PD3693   PD        0.249839    0.535962    0.713373     0.005394
AU3694   AU        0.285615    0.500983    0.715216     0.007504
PD3695   PD        0.285769    0.534616    0.749691     0.005394
AU3696   AU        0.320769    0.500927    0.748567     0.007504
PD3697   PD        0.319858    0.535415    0.712787     0.005394
PD3698   PD        0.359112    0.499478    0.713903     0.005394
AU3699   AU        0.357078    0.537125    0.748455     0.007504
AU3700   AU        0.393710    0.502570    0.749309     0.007504
PD3701   PD        0.394112    0.535511    0.710288     0.005394
AU3702   AU        0.428371    0.500319    0.714817     0.007504
PD3703   PD        0.429312    0.537111    0.750309     0.005394
AU3704   AU        0.464894    0.499247    0.753116     0.007504
AU3705   AU        0.464010    0.533471    0.716136     0.007504
AU3706   AU        0.500969    0.499086    0.715669     0.007504
AU3707   AU        0.501136    0.538917    0.750824     0.007504
AU3708   AU        0.534517    0.498867    0.750566     0.007504
PD3709   PD        0.534514    0.536948    0.715893     0.005394
PD3710   PD        0.567112    0.500019    0.713278     0.005394
PD3711   PD        0.569572    0.535176    0.748642     0.005394
AU3712   AU        0.602447    0.498698    0.752805     0.007504
AU3713   AU        0.605410    0.535290    0.716123     0.007504
PD3714   PD        0.642675    0.500410    0.714003     0.005394
AU3715   AU        0.641820    0.534718    0.751773     0.007504
AU3716   AU        0.680168    0.504631    0.753012     0.007504
PD3717   PD        0.677351    0.535920    0.712199     0.005394
AU3718   AU        0.713908    0.502471    0.712197     0.007504
AU3719   AU        0.139941    0.567503    0.714585     0.007504
PD3720   PD        0.179314    0.571181    0.750244     0.005394
PD3721   PD        0.177581    0.603639    0.715703     0.005394
AU3722   AU        0.215374    0.570048    0.714150     0.007504
PD3723   PD        0.216254    0.605619    0.747523     0.005394
PD3724   PD        0.250500    0.570216    0.747538     0.005394
AU3725   AU        0.250254    0.606798    0.711999     0.007504
PD3726   PD        0.287502    0.571840    0.714241     0.005394
AU3727   AU        0.283220    0.607258    0.747958     0.007504
AU3728   AU        0.321582    0.572657    0.749350     0.007504
PD3729   PD        0.322243    0.609021    0.715608     0.005394
AU3730   AU        0.356321    0.571524    0.712250     0.007504
PD3731   PD        0.358325    0.605969    0.749753     0.005394
PD3732   PD        0.393960    0.570013    0.747152     0.005394
AU3733   AU        0.391389    0.607280    0.714141     0.007504
PD3734   PD        0.429694    0.568688    0.712855     0.005394
AU3735   AU        0.428277    0.604951    0.748250     0.007504
PD3736   PD        0.463828    0.570243    0.749997     0.005394
PD3737   PD        0.464032    0.606440    0.715024     0.005394
PD3738   PD        0.500193    0.571817    0.713005     0.005394
PD3739   PD        0.500101    0.609521    0.747817     0.005394
PD3740   PD        0.536180    0.573483    0.748473     0.005394
PD3741   PD        0.535881    0.606720    0.714307     0.005394
AU3742   AU        0.570949    0.572436    0.712790     0.007504
AU3743   AU        0.572991    0.608598    0.751206     0.007504
PD3744   PD        0.607039    0.569423    0.749529     0.005394
AU3745   AU        0.605653    0.605591    0.714970     0.007504
AU3746   AU        0.640317    0.569755    0.714363     0.007504
AU3747   AU        0.641669    0.607777    0.751483     0.007504
PD3748   PD        0.676708    0.570881    0.749717     0.005394
AU3749   AU        0.673830    0.606100    0.714286     0.007504
PD3750   PD        0.709503    0.571763    0.714834     0.005394
AU3751   AU        0.214671    0.645051    0.714079     0.007504
AU3752   AU        0.249238    0.645537    0.752165     0.007504
PD3753   PD        0.250668    0.680954    0.715550     0.005394
PD3754   PD        0.285552    0.645125    0.716397     0.005394
AU3755   AU        0.285025    0.679113    0.750811     0.007504
AU3756   AU        0.321736    0.644119    0.750101     0.007504
PD3757   PD        0.321769    0.680650    0.715130     0.005394
PD3758   PD        0.359330    0.645717    0.713581     0.005394
PD3759   PD        0.357730    0.677784    0.751359     0.005394
AU3760   AU        0.392538    0.642782    0.747984     0.007504
PD3761   PD        0.391525    0.681012    0.714760     0.005394
AU3762   AU        0.429004    0.643307    0.714814     0.007504
PD3763   PD        0.429879    0.679431    0.749701     0.005394
PD3764   PD        0.464393    0.642110    0.749226     0.005394
AU3765   AU        0.465015    0.680519    0.715264     0.007504
AU3766   AU        0.500283    0.642389    0.712795     0.007504
AU3767   AU        0.500208    0.678111    0.748310     0.007504
PD3768   PD        0.535352    0.642813    0.749022     0.005394
AU3769   AU        0.535625    0.675846    0.711366     0.007504
PD3770   PD        0.571005    0.640751    0.712820     0.005394
PD3771   PD        0.567491    0.678253    0.749605     0.005394
AU3772   AU        0.605911    0.646775    0.750819     0.007504
PD3773   PD        0.601485    0.678881    0.715108     0.005394
PD3774   PD        0.636104    0.644008    0.713075     0.005394
AU3775   AU        0.285054    0.714868    0.716495     0.007504
AU3776   AU        0.357494    0.714386    0.716504     0.007504
AU3777   AU        0.391658    0.714934    0.751959     0.007504
PD3778   PD        0.393721    0.749187    0.715225     0.005394
AU3779   AU        0.429201    0.714083    0.716116     0.007504
PD3780   PD        0.465669    0.713611    0.750819     0.005394
AU3781   AU        0.464569    0.747047    0.712360     0.007504
AU3782   AU        0.501864    0.716015    0.713158     0.007504
PD3783   PD        0.568536    0.713039    0.713642     0.005394
PD3784   PD        0.397900    0.176217    0.781380     0.005394
PD3785   PD        0.464864    0.180272    0.782353     0.005394
PD3786   PD        0.252146    0.249583    0.783751     0.005394
AU3787   AU        0.324147    0.249818    0.784672     0.007504
PD3788   PD        0.361505    0.218148    0.783953     0.005394
PD3789   PD        0.359137    0.251322    0.819276     0.005394
PD3790   PD        0.395076    0.253098    0.784989     0.005394
AU3791   AU        0.431686    0.214306    0.787054     0.007504
AU3792   AU        0.428910    0.251227    0.819719     0.007504
AU3793   AU        0.466822    0.251538    0.785069     0.007504
PD3794   PD        0.502108    0.215092    0.784456     0.005394
PD3795   PD        0.502798    0.248701    0.818876     0.005394
PD3796   PD        0.536034    0.252687    0.784900     0.005394
AU3797   AU        0.605246    0.250360    0.785098     0.007504
PD3798   PD        0.252461    0.324558    0.784066     0.005394
AU3799   AU        0.285346    0.285843    0.782537     0.007504
PD3800   PD        0.286362    0.323929    0.819317     0.005394
PD3801   PD        0.322952    0.285877    0.817895     0.005394
AU3802   AU        0.323873    0.322173    0.782763     0.007504
AU3803   AU        0.359483    0.286067    0.784615     0.007504
AU3804   AU        0.358603    0.323112    0.822839     0.007504
AU3805   AU        0.395161    0.287617    0.819703     0.007504
AU3806   AU        0.393986    0.321180    0.784006     0.007504
AU3807   AU        0.431607    0.286643    0.784618     0.007504
AU3808   AU        0.429744    0.322999    0.823801     0.007504
AU3809   AU        0.468222    0.285377    0.822854     0.007504
AU3810   AU        0.465170    0.323777    0.786273     0.007504
PD3811   PD        0.502312    0.286449    0.784849     0.005394
AU3812   AU        0.503215    0.320208    0.823559     0.007504
AU3813   AU        0.538085    0.284734    0.821834     0.007504
PD3814   PD        0.535768    0.323315    0.782515     0.005394
PD3815   PD        0.570989    0.285455    0.784257     0.005394
PD3816   PD        0.570445    0.324242    0.816723     0.005394
PD3817   PD        0.606109    0.321538    0.783891     0.005394
AU3818   AU        0.179093    0.394757    0.786517     0.007504
AU3819   AU        0.216404    0.355532    0.785043     0.007504
AU3820   AU        0.252248    0.359068    0.820903     0.007504
PD3821   PD        0.248523    0.392502    0.781928     0.005394
AU3822   AU        0.287515    0.358781    0.783810     0.007504
PD3823   PD        0.286849    0.393897    0.818603     0.005394
AU3824   AU        0.321418    0.357729    0.821034     0.007504
AU3825   AU        0.322886    0.393498    0.785452     0.007504
AU3826   AU        0.358510    0.358146    0.784760     0.007504
PD3827   PD        0.359846    0.393362    0.820683     0.005394
PD3828   PD        0.395995    0.359063    0.819705     0.005394
PD3829   PD        0.393649    0.395102    0.786420     0.005394
PD3830   PD        0.429575    0.356509    0.784902     0.005394
PD3831   PD        0.430520    0.395314    0.819875     0.005394
PD3832   PD        0.464700    0.356576    0.822964     0.005394
PD3833   PD        0.463937    0.391060    0.784818     0.005394
AU3834   AU        0.501396    0.357850    0.787175     0.007504
PD3835   PD        0.498798    0.393107    0.821228     0.005394
AU3836   AU        0.536826    0.360273    0.820179     0.007504
PD3837   PD        0.536846    0.394223    0.785605     0.005394
PD3838   PD        0.571458    0.359498    0.783603     0.005394
PD3839   PD        0.574378    0.393015    0.818110     0.005394
AU3840   AU        0.608602    0.358560    0.817613     0.007504
AU3841   AU        0.606405    0.393653    0.783806     0.007504
PD3842   PD        0.644672    0.358192    0.783367     0.005394
AU3843   AU        0.678541    0.396895    0.786609     0.007504
PD3844   PD        0.182219    0.460690    0.783363     0.005394
PD3845   PD        0.215475    0.427965    0.781914     0.005394
AU3846   AU        0.250590    0.426110    0.816534     0.007504
PD3847   PD        0.248693    0.463059    0.783328     0.005394
PD3848   PD        0.286035    0.427401    0.782948     0.005394
PD3849   PD        0.287613    0.462990    0.816079     0.005394
PD3850   PD        0.322569    0.428059    0.818572     0.005394
AU3851   AU        0.322301    0.464857    0.783874     0.007504
AU3852   AU        0.358886    0.427782    0.784943     0.007504
PD3853   PD        0.357022    0.463916    0.817430     0.005394
PD3854   PD        0.393492    0.429966    0.820545     0.005394
PD3855   PD        0.394064    0.465864    0.785119     0.005394
PD3856   PD        0.430348    0.429522    0.786276     0.005394
AU3857   AU        0.429308    0.463358    0.820272     0.007504
PD3858   PD        0.465591    0.429208    0.820313     0.005394
PD3859   PD        0.464123    0.465515    0.787569     0.005394
PD3860   PD        0.499903    0.427542    0.786440     0.005394
AU3861   AU        0.500427    0.465299    0.822908     0.007504
AU3862   AU        0.537984    0.427243    0.825411     0.007504
PD3863   PD        0.534107    0.463865    0.786107     0.005394
PD3864   PD        0.571967    0.429708    0.785001     0.005394
PD3865   PD        0.571293    0.461938    0.820109     0.005394
PD3866   PD        0.608061    0.429913    0.820711     0.005394
PD3867   PD        0.605005    0.465688    0.786031     0.005394
AU3868   AU        0.641565    0.430835    0.784803     0.007504
AU3869   AU        0.679483    0.466507    0.785976     0.007504
PD3870   PD        0.216067    0.497351    0.782666     0.005394
AU3871   AU        0.252056    0.497272    0.818589     0.007504
AU3872   AU        0.247206    0.534806    0.785461     0.007504
AU3873   AU        0.285877    0.499959    0.783751     0.007504
PD3874   PD        0.285312    0.534428    0.817286     0.005394
AU3875   AU        0.323668    0.500354    0.821042     0.007504
PD3876   PD        0.321050    0.535190    0.782868     0.005394
PD3877   PD        0.359792    0.502776    0.783429     0.005394
PD3878   PD        0.358945    0.537524    0.818210     0.005394
PD3879   PD        0.391376    0.498232    0.821334     0.005394
PD3880   PD        0.393918    0.538727    0.783559     0.005394
AU3881   AU        0.428080    0.501449    0.786733     0.007504
AU3882   AU        0.425107    0.535542    0.822598     0.007504
AU3883   AU        0.467197    0.500577    0.826687     0.007504
AU3884   AU        0.463665    0.535107    0.788999     0.007504
AU3885   AU        0.502586    0.500588    0.786873     0.007504
AU3886   AU        0.501037    0.537257    0.821766     0.007504
AU3887   AU        0.536528    0.499856    0.826209     0.007504
AU3888   AU        0.535989    0.536187    0.783878     0.007504
PD3889   PD        0.568400    0.498294    0.786302     0.005394
AU3890   AU        0.570699    0.538503    0.822477     0.007504
AU3891   AU        0.605743    0.500510    0.821049     0.007504
AU3892   AU        0.605208    0.536493    0.785720     0.007504
PD3893   PD        0.641877    0.498795    0.787343     0.005394
AU3894   AU        0.249513    0.604341    0.785079     0.007504
PD3895   PD        0.287607    0.570379    0.783228     0.005394
AU3896   AU        0.320153    0.571789    0.819344     0.007504
AU3897   AU        0.320825    0.608491    0.785447     0.007504
PD3898   PD        0.355463    0.572513    0.783443     0.005394
PD3899   PD        0.356836    0.606274    0.821710     0.005394
PD3900   PD        0.393866    0.571771    0.820833     0.005394
AU3901   AU        0.392571    0.604164    0.783012     0.007504
AU3902   AU        0.430003    0.570610    0.786148     0.007504
PD3903   PD        0.430076    0.607177    0.820710     0.005394
PD3904   PD        0.465078    0.569925    0.822793     0.005394
PD3905   PD        0.465043    0.607073    0.784999     0.005394
AU3906   AU        0.501048    0.571943    0.785455     0.007504
AU3907   AU        0.499067    0.607170    0.821353     0.007504
PD3908   PD        0.538687    0.573194    0.818129     0.005394
AU3909   AU        0.534480    0.609365    0.783470     0.007504
PD3910   PD        0.572091    0.570739    0.783439     0.005394
AU3911   AU        0.606113    0.607524    0.785871     0.007504
PD3912   PD        0.358846    0.641125    0.786033     0.005394
PD3913   PD        0.394272    0.676751    0.783175     0.005394
AU3914   AU        0.427314    0.641215    0.784164     0.007504
PD3915   PD        0.462508    0.675899    0.783076     0.005394
PD3916   PD        0.498817    0.643263    0.783924     0.005394
PD3917   PD        0.394627    0.393565    0.853510     0.005394
PD3918   PD        0.428934    0.360438    0.855050     0.005394
PD3919   PD        0.464106    0.394625    0.854723     0.005394
PD3920   PD        0.355886    0.429938    0.852131     0.005394
PD3921   PD        0.391707    0.462340    0.855883     0.005394
PD3922   PD        0.428447    0.429970    0.853891     0.005394
PD3923   PD        0.463632    0.462605    0.858439     0.005394
PD3924   PD        0.498213    0.428331    0.855923     0.005394
AU3925   AU        0.427886    0.498200    0.858095     0.007504
