data_00001
_audit_creation_method   'DISCUS'

_data_chemical_name_common 'Cu.cell Pearson1985'

_cell_length_a             54.2220
_cell_length_b             54.2220
_cell_length_c             54.2220
_cell_angle_alpha     90.0000
_cell_angle_beta      90.0000
_cell_angle_gamma     90.0000

_symmetry_space_group_name_H-M   'P1              '

loop_
_atom_site_label
_atom_site_symbol
_atom_site_fract_x
_atom_site_fract_y
_atom_site_fract_z
_atom_site_u_iso_or_equiv
CU1   CU        0.381263    0.341215    0.031764     0.006663
NI2   NI        0.415402    0.307159    0.028489     0.004307
NI3   NI        0.451279    0.339164    0.027594     0.004307
NI4   NI        0.486722    0.304883    0.028463     0.004307
NI5   NI        0.521824    0.341062    0.030785     0.004307
CU6   CU        0.314341    0.407154    0.029490     0.006663
NI7   NI        0.348888    0.376178    0.027403     0.004307
NI8   NI        0.381848    0.408373    0.031557     0.004307
CU9   CU        0.415022    0.372889    0.028923     0.006663
NI10   NI        0.450917    0.412255    0.028816     0.004307
NI11   NI        0.486899    0.374785    0.031626     0.004307
NI12   NI        0.522941    0.413385    0.027783     0.004307
NI13   NI        0.558362    0.376340    0.028479     0.004307
NI14   NI        0.594116    0.415335    0.028894     0.004307
NI15   NI        0.310493    0.482864    0.029909     0.004307
NI16   NI        0.344387    0.482410    0.000667     0.004307
CU17   CU        0.380739    0.482764    0.029620     0.006663
NI18   NI        0.413868    0.447356    0.029915     0.004307
NI19   NI        0.452281    0.480724    0.028692     0.004307
NI20   NI        0.488362    0.446065    0.028572     0.004307
NI21   NI        0.522690    0.484452    0.030975     0.004307
CU22   CU        0.557599    0.452102    0.029566     0.006663
NI23   NI        0.591862    0.481973    0.028820     0.004307
CU24   CU        0.342489    0.516030    0.031956     0.006663
NI25   NI        0.408755    0.558043    0.014466     0.004307
NI26   NI        0.419777    0.516315    0.026411     0.004307
NI27   NI        0.451712    0.555998    0.029441     0.004307
NI28   NI        0.487184    0.515732    0.027302     0.004307
NI29   NI        0.522762    0.553816    0.030525     0.004307
NI30   NI        0.557345    0.518151    0.029389     0.004307
NI31   NI        0.412920    0.592857    0.043163     0.004307
CU32   CU        0.487712    0.586158    0.028203     0.006663
NI33   NI        0.311493    0.204761    0.091926     0.004307
NI34   NI        0.385397    0.203400    0.091947     0.004307
NI35   NI        0.416677    0.169797    0.092822     0.004307
NI36   NI        0.451970    0.203714    0.093940     0.004307
NI37   NI        0.487025    0.169694    0.092586     0.004307
NI38   NI        0.517635    0.202155    0.095188     0.004307
NI39   NI        0.591375    0.203325    0.094045     0.004307
NI40   NI        0.243522    0.271720    0.094721     0.004307
NI41   NI        0.277057    0.235346    0.095160     0.004307
NI42   NI        0.311227    0.270217    0.092003     0.004307
NI43   NI        0.348005    0.232864    0.091492     0.004307
CU44   CU        0.349705    0.274097    0.062227     0.006663
NI45   NI        0.381696    0.238638    0.063103     0.004307
NI46   NI        0.383715    0.273530    0.092358     0.004307
CU47   CU        0.417195    0.238779    0.093139     0.006663
NI48   NI        0.416918    0.271958    0.060123     0.004307
NI49   NI        0.451221    0.237673    0.063777     0.004307
NI50   NI        0.452234    0.272295    0.094329     0.004307
NI51   NI        0.486100    0.236975    0.092553     0.004307
CU52   CU        0.486547    0.270869    0.062420     0.006663
NI53   NI        0.523776    0.235972    0.061683     0.004307
CU54   CU        0.520172    0.270357    0.091797     0.006663
NI55   NI        0.558189    0.237137    0.093011     0.004307
NI56   NI        0.555236    0.269674    0.060430     0.004307
CU57   CU        0.589460    0.272653    0.092209     0.006663
NI58   NI        0.629274    0.237419    0.093317     0.004307
NI59   NI        0.663330    0.269886    0.096167     0.004307
NI60   NI        0.205671    0.304133    0.093189     0.004307
NI61   NI        0.244051    0.335008    0.089401     0.004307
NI62   NI        0.277658    0.302810    0.089642     0.004307
CU63   CU        0.236144    0.339576    0.026946     0.006663
NI64   NI        0.312998    0.305267    0.058933     0.004307
CU65   CU        0.312411    0.341240    0.091385     0.006663
NI66   NI        0.348514    0.306605    0.091092     0.004307
NI67   NI        0.345816    0.340664    0.060492     0.004307
CU68   CU        0.382706    0.305882    0.061233     0.006663
NI69   NI        0.383417    0.341091    0.091759     0.004307
NI70   NI        0.414713    0.307263    0.094932     0.004307
NI71   NI        0.417045    0.339781    0.059099     0.004307
CU72   CU        0.451427    0.305615    0.057331     0.006663
CU73   CU        0.451147    0.338971    0.090933     0.006663
CU74   CU        0.487126    0.305997    0.091863     0.006663
NI75   NI        0.486796    0.340750    0.060264     0.004307
NI76   NI        0.520321    0.303796    0.060287     0.004307
NI77   NI        0.521223    0.343460    0.090198     0.004307
CU78   CU        0.554960    0.307016    0.090746     0.006663
NI79   NI        0.556916    0.342420    0.059736     0.004307
NI80   NI        0.594066    0.308169    0.062725     0.004307
NI81   NI        0.591583    0.344439    0.089977     0.004307
NI82   NI        0.663691    0.307533    0.064922     0.004307
NI83   NI        0.626931    0.341895    0.059905     0.004307
NI84   NI        0.663561    0.342046    0.091831     0.004307
NI85   NI        0.696888    0.309112    0.094339     0.004307
NI86   NI        0.172013    0.407527    0.097799     0.004307
NI87   NI        0.208791    0.383672    0.109059     0.004307
NI88   NI        0.241310    0.373547    0.058024     0.004307
NI89   NI        0.245667    0.407989    0.086028     0.004307
NI90   NI        0.276621    0.374872    0.090671     0.004307
NI91   NI        0.281286    0.414297    0.060790     0.004307
CU92   CU        0.314055    0.375373    0.060765     0.006663
NI93   NI        0.313615    0.410758    0.091725     0.004307
NI94   NI        0.346022    0.377723    0.093797     0.004307
CU95   CU        0.345764    0.412445    0.060661     0.006663
NI96   NI        0.381313    0.374830    0.061931     0.004307
NI97   NI        0.381707    0.410529    0.088415     0.004307
CU98   CU        0.414568    0.378047    0.090327     0.006663
NI99   NI        0.418179    0.410346    0.058581     0.004307
CU100   CU        0.449584    0.375650    0.059143     0.006663
NI101   NI        0.451529    0.411923    0.090654     0.004307
NI102   NI        0.485968    0.377385    0.089383     0.004307
CU103   CU        0.488347    0.411383    0.057657     0.006663
NI104   NI        0.522527    0.378163    0.056671     0.004307
NI105   NI        0.522910    0.412336    0.090125     0.004307
NI106   NI        0.557606    0.376669    0.088964     0.004307
NI107   NI        0.557581    0.412545    0.059361     0.004307
CU108   CU        0.593412    0.378404    0.059010     0.006663
NI109   NI        0.591467    0.413362    0.090046     0.004307
NI110   NI        0.629335    0.377210    0.091952     0.004307
NI111   NI        0.628447    0.412815    0.059372     0.004307
NI112   NI        0.662932    0.374400    0.060820     0.004307
NI113   NI        0.663334    0.411698    0.092762     0.004307
NI114   NI        0.696811    0.376508    0.093955     0.004307
NI115   NI        0.732091    0.407781    0.094509     0.004307
NI116   NI        0.174574    0.482215    0.094364     0.004307
NI117   NI        0.208010    0.453034    0.094201     0.004307
NI118   NI        0.246212    0.447250    0.059705     0.004307
CU119   CU        0.243122    0.482154    0.092989     0.006663
NI120   NI        0.276110    0.449626    0.092733     0.004307
NI121   NI        0.278712    0.480550    0.061441     0.004307
CU122   CU        0.310476    0.446934    0.062917     0.006663
CU123   CU        0.313619    0.479895    0.093778     0.006663
NI124   NI        0.347622    0.448381    0.090159     0.004307
NI125   NI        0.346472    0.482869    0.062145     0.004307
CU126   CU        0.382439    0.446599    0.060277     0.006663
NI127   NI        0.383533    0.481739    0.093357     0.004307
CU128   CU        0.416473    0.445273    0.092165     0.006663
NI129   NI        0.417195    0.479580    0.059764     0.004307
NI130   NI        0.450573    0.446176    0.057905     0.004307
NI131   NI        0.453072    0.481192    0.090895     0.004307
NI132   NI        0.485401    0.448706    0.089711     0.004307
NI133   NI        0.487466    0.482154    0.059540     0.004307
NI134   NI        0.522669    0.448694    0.060206     0.004307
NI135   NI        0.522811    0.482643    0.090299     0.004307
NI136   NI        0.557037    0.448940    0.091636     0.004307
NI137   NI        0.559498    0.482910    0.061589     0.004307
CU138   CU        0.592242    0.448230    0.060152     0.006663
NI139   NI        0.592868    0.481782    0.092498     0.004307
CU140   CU        0.627548    0.448146    0.092575     0.006663
NI141   NI        0.627753    0.480254    0.063964     0.004307
NI142   NI        0.664422    0.446966    0.065756     0.004307
NI143   NI        0.662444    0.482157    0.094311     0.004307
NI144   NI        0.698507    0.446654    0.094557     0.004307
NI145   NI        0.732374    0.481005    0.094849     0.004307
NI146   NI        0.207961    0.515775    0.090559     0.004307
NI147   NI        0.241543    0.514717    0.058686     0.004307
NI148   NI        0.240447    0.549272    0.091423     0.004307
CU149   CU        0.273669    0.518558    0.092087     0.006663
NI150   NI        0.274203    0.553327    0.063703     0.004307
NI151   NI        0.307650    0.518215    0.063909     0.004307
NI152   NI        0.308820    0.554056    0.094515     0.004307
NI153   NI        0.346288    0.518116    0.090668     0.004307
NI154   NI        0.342935    0.552276    0.061453     0.004307
NI155   NI        0.380202    0.519247    0.060583     0.004307
CU156   CU        0.381211    0.551514    0.090583     0.006663
NI157   NI        0.415909    0.516857    0.090867     0.004307
NI158   NI        0.416444    0.553208    0.059118     0.004307
NI159   NI        0.451640    0.518572    0.058781     0.004307
CU160   CU        0.451030    0.553165    0.094027     0.006663
NI161   NI        0.485374    0.518069    0.090946     0.004307
NI162   NI        0.486217    0.550308    0.057907     0.004307
NI163   NI        0.520489    0.518858    0.059356     0.004307
NI164   NI        0.521984    0.552507    0.090754     0.004307
NI165   NI        0.556241    0.516248    0.091518     0.004307
NI166   NI        0.555190    0.553335    0.060949     0.004307
NI167   NI        0.593101    0.517486    0.061411     0.004307
CU168   CU        0.592653    0.551872    0.090276     0.006663
NI169   NI        0.628616    0.517574    0.093505     0.004307
NI170   NI        0.628006    0.550893    0.060816     0.004307
NI171   NI        0.662086    0.515367    0.060859     0.004307
NI172   NI        0.663071    0.548034    0.093777     0.004307
CU173   CU        0.697983    0.515558    0.094768     0.006663
NI174   NI        0.210992    0.586496    0.092080     0.004307
NI175   NI        0.242124    0.622141    0.091041     0.004307
NI176   NI        0.275885    0.587965    0.093018     0.004307
NI177   NI        0.308791    0.587143    0.063336     0.004307
CU178   CU        0.311292    0.621610    0.092123     0.006663
NI179   NI        0.342623    0.586507    0.093568     0.004307
NI180   NI        0.342595    0.623431    0.062555     0.004307
NI181   NI        0.373898    0.587068    0.063890     0.004307
NI182   NI        0.381465    0.625930    0.091572     0.004307
CU183   CU        0.415500    0.586079    0.090176     0.006663
NI184   NI        0.420392    0.632904    0.059619     0.004307
NI185   NI        0.454261    0.588884    0.060200     0.004307
NI186   NI        0.452108    0.623855    0.091388     0.004307
CU187   CU        0.486736    0.586013    0.090306     0.006663
NI188   NI        0.487745    0.623211    0.062254     0.004307
CU189   CU        0.522047    0.586115    0.059342     0.006663
NI190   NI        0.521398    0.624283    0.094456     0.004307
NI191   NI        0.558033    0.590006    0.092715     0.004307
NI192   NI        0.554045    0.625946    0.062172     0.004307
CU193   CU        0.593818    0.587160    0.059982     0.006663
NI194   NI        0.592841    0.621514    0.091674     0.004307
NI195   NI        0.626747    0.585882    0.091069     0.004307
NI196   NI        0.662747    0.621219    0.094384     0.004307
CU197   CU        0.695044    0.586857    0.093545     0.006663
NI198   NI        0.277773    0.654578    0.093328     0.004307
NI199   NI        0.309362    0.690508    0.096248     0.004307
NI200   NI        0.343989    0.658291    0.088528     0.004307
NI201   NI        0.380528    0.659622    0.061078     0.004307
NI202   NI        0.382523    0.691016    0.094384     0.004307
NI203   NI        0.415613    0.659175    0.093897     0.004307
NI204   NI        0.455004    0.660909    0.064585     0.004307
NI205   NI        0.450594    0.691080    0.096081     0.004307
CU206   CU        0.487612    0.657071    0.094633     0.006663
NI207   NI        0.520612    0.656489    0.062413     0.004307
NI208   NI        0.522603    0.694318    0.094937     0.004307
CU209   CU        0.556983    0.656499    0.093537     0.006663
NI210   NI        0.593474    0.689976    0.092856     0.004307
NI211   NI        0.625440    0.653525    0.095808     0.004307
NI212   NI        0.417605    0.726120    0.094539     0.004307
NI213   NI        0.485709    0.722523    0.093118     0.004307
NI214   NI        0.314037    0.137262    0.160202     0.004307
NI215   NI        0.347856    0.102191    0.159506     0.004307
NI216   NI        0.344133    0.137086    0.127205     0.004307
NI217   NI        0.379099    0.134475    0.158760     0.004307
NI218   NI        0.414404    0.102826    0.160200     0.004307
NI219   NI        0.414883    0.136252    0.128505     0.004307
CU220   CU        0.448688    0.134321    0.157834     0.006663
NI221   NI        0.486475    0.101724    0.158649     0.004307
NI222   NI        0.487948    0.137541    0.125866     0.004307
CU223   CU        0.520357    0.135425    0.157445     0.006663
NI224   NI        0.556771    0.102458    0.160438     0.004307
NI225   NI        0.553540    0.135691    0.124843     0.004307
CU226   CU        0.587135    0.136976    0.157766     0.006663
NI227   NI        0.243712    0.204595    0.159828     0.004307
NI228   NI        0.281068    0.171046    0.161082     0.004307
NI229   NI        0.277447    0.205034    0.126668     0.004307
NI230   NI        0.310851    0.170441    0.126960     0.004307
NI231   NI        0.313036    0.204192    0.159365     0.004307
CU232   CU        0.347285    0.169523    0.158821     0.006663
NI233   NI        0.346419    0.204016    0.125119     0.004307
NI234   NI        0.380402    0.169817    0.124361     0.004307
CU235   CU        0.380874    0.200998    0.156777     0.006663
CU236   CU        0.415713    0.167712    0.158593     0.006663
NI237   NI        0.416081    0.202592    0.125472     0.004307
NI238   NI        0.450351    0.167708    0.127108     0.004307
NI239   NI        0.448967    0.199593    0.157015     0.004307
NI240   NI        0.485804    0.168265    0.158089     0.004307
NI241   NI        0.484196    0.201231    0.127345     0.004307
NI242   NI        0.520167    0.169666    0.125854     0.004307
CU243   CU        0.521347    0.202035    0.159153     0.006663
NI244   NI        0.555626    0.169552    0.156368     0.004307
NI245   NI        0.553689    0.206643    0.124883     0.004307
NI246   NI        0.590622    0.171334    0.127518     0.004307
NI247   NI        0.589685    0.205152    0.157756     0.004307
NI248   NI        0.622483    0.170972    0.160018     0.004307
NI249   NI        0.626623    0.202557    0.123635     0.004307
NI250   NI        0.659154    0.202838    0.159018     0.004307
NI251   NI        0.172123    0.271043    0.158143     0.004307
NI252   NI        0.207672    0.240197    0.158714     0.004307
NI253   NI        0.209994    0.272316    0.127271     0.004307
NI254   NI        0.244008    0.241042    0.127640     0.004307
NI255   NI        0.240272    0.271308    0.160060     0.004307
NI256   NI        0.278247    0.238363    0.158772     0.004307
NI257   NI        0.278632    0.273067    0.124786     0.004307
CU258   CU        0.313056    0.237394    0.125823     0.006663
NI259   NI        0.310603    0.270857    0.154875     0.004307
NI260   NI        0.346428    0.235462    0.158244     0.004307
NI261   NI        0.346384    0.268439    0.121958     0.004307
CU262   CU        0.381799    0.234582    0.124830     0.006663
NI263   NI        0.377720    0.267703    0.152344     0.004307
NI264   NI        0.415605    0.235531    0.158035     0.004307
NI265   NI        0.416198    0.268854    0.125017     0.004307
CU266   CU        0.450104    0.236472    0.125805     0.006663
NI267   NI        0.450350    0.267720    0.158050     0.004307
NI268   NI        0.487109    0.236382    0.157800     0.004307
CU269   CU        0.487361    0.272104    0.123732     0.006663
NI270   NI        0.521366    0.238353    0.124644     0.004307
NI271   NI        0.522220    0.268368    0.157971     0.004307
NI272   NI        0.556860    0.237911    0.155624     0.004307
NI273   NI        0.556340    0.272986    0.123572     0.004307
NI274   NI        0.591867    0.238617    0.124747     0.004307
NI275   NI        0.593723    0.269656    0.158469     0.004307
CU276   CU        0.625212    0.236923    0.157889     0.006663
NI277   NI        0.627306    0.268831    0.126879     0.004307
NI278   NI        0.661103    0.236497    0.126095     0.004307
NI279   NI        0.661650    0.272442    0.157858     0.004307
NI280   NI        0.693937    0.237511    0.160151     0.004307
NI281   NI        0.696317    0.271789    0.125282     0.004307
NI282   NI        0.728809    0.271079    0.159716     0.004307
NI283   NI        0.105053    0.337607    0.159717     0.004307
NI284   NI        0.138775    0.303040    0.160924     0.004307
NI285   NI        0.136457    0.339285    0.128751     0.004307
NI286   NI        0.170884    0.302254    0.127604     0.004307
NI287   NI        0.170090    0.337924    0.158855     0.004307
CU288   CU        0.207756    0.303724    0.157979     0.006663
NI289   NI        0.233418    0.349493    0.129762     0.004307
NI290   NI        0.241155    0.306491    0.122825     0.004307
NI291   NI        0.254202    0.351658    0.171983     0.004307
NI292   NI        0.288183    0.314183    0.181177     0.004307
CU293   CU        0.275864    0.339371    0.117890     0.006663
NI294   NI        0.313479    0.307529    0.119642     0.004307
NI295   NI        0.322206    0.349306    0.176735     0.004307
NI296   NI        0.357878    0.315609    0.183683     0.004307
NI297   NI        0.347711    0.342139    0.122482     0.004307
NI298   NI        0.381193    0.305226    0.124418     0.004307
CU299   CU        0.382746    0.341163    0.155024     0.006663
CU300   CU        0.416470    0.309301    0.152830     0.006663
NI301   NI        0.417375    0.343991    0.123180     0.004307
NI302   NI        0.454005    0.305750    0.125416     0.004307
NI303   NI        0.456621    0.343923    0.152571     0.004307
NI304   NI        0.489287    0.308174    0.156216     0.004307
NI305   NI        0.487851    0.341954    0.121654     0.004307
CU306   CU        0.523328    0.308244    0.123671     0.006663
CU307   CU        0.522041    0.343574    0.155361     0.006663
NI308   NI        0.555595    0.307598    0.152680     0.004307
NI309   NI        0.554861    0.342118    0.121678     0.004307
NI310   NI        0.594766    0.303705    0.126150     0.004307
NI311   NI        0.591714    0.340899    0.151707     0.004307
CU312   CU        0.628183    0.306218    0.156091     0.006663
NI313   NI        0.629276    0.341776    0.123945     0.004307
NI314   NI        0.664763    0.306006    0.124836     0.004307
CU315   CU        0.664119    0.337641    0.155773     0.006663
NI316   NI        0.696207    0.304434    0.159432     0.004307
NI317   NI        0.698105    0.340686    0.124626     0.004307
CU318   CU        0.728634    0.304674    0.128762     0.006663
NI319   NI        0.730467    0.340458    0.158082     0.004307
NI320   NI        0.762642    0.305624    0.160323     0.004307
NI321   NI        0.762892    0.342119    0.127844     0.004307
NI322   NI        0.795282    0.338054    0.160347     0.004307
CU323   CU        0.107245    0.409031    0.159998     0.006663
CU324   CU        0.136195    0.372491    0.159206     0.006663
NI325   NI        0.141148    0.408494    0.129648     0.004307
NI326   NI        0.169997    0.371959    0.126488     0.004307
NI327   NI        0.189768    0.411985    0.139498     0.004307
NI328   NI        0.220951    0.381115    0.156195     0.004307
NI329   NI        0.232787    0.416588    0.128269     0.004307
NI330   NI        0.264306    0.378450    0.137571     0.004307
CU331   CU        0.253085    0.411952    0.169484     0.006663
NI332   NI        0.288266    0.382293    0.174153     0.004307
CU333   CU        0.280150    0.413860    0.118264     0.006663
NI334   NI        0.310713    0.378678    0.121970     0.004307
CU335   CU        0.313730    0.411861    0.152278     0.006663
NI336   NI        0.346026    0.379240    0.154690     0.004307
CU337   CU        0.349805    0.411769    0.122177     0.006663
NI338   NI        0.382958    0.373400    0.121717     0.004307
NI339   NI        0.380835    0.412515    0.157557     0.004307
NI340   NI        0.419369    0.379031    0.155745     0.004307
NI341   NI        0.415559    0.411077    0.122898     0.004307
NI342   NI        0.454356    0.377082    0.123305     0.004307
NI343   NI        0.452682    0.410499    0.153708     0.004307
NI344   NI        0.487202    0.379980    0.155791     0.004307
NI345   NI        0.486814    0.411899    0.122632     0.004307
NI346   NI        0.520940    0.375841    0.121510     0.004307
NI347   NI        0.521408    0.412806    0.155927     0.004307
CU348   CU        0.554748    0.378176    0.154250     0.006663
CU349   CU        0.556815    0.412914    0.120477     0.006663
CU350   CU        0.590641    0.376954    0.122149     0.006663
NI351   NI        0.589574    0.411503    0.154943     0.004307
CU352   CU        0.632190    0.375770    0.157277     0.006663
NI353   NI        0.627360    0.410051    0.124306     0.004307
CU354   CU        0.665526    0.376011    0.125426     0.006663
CU355   CU        0.665630    0.411620    0.157544     0.006663
CU356   CU        0.698393    0.377299    0.157218     0.006663
NI357   NI        0.701242    0.411061    0.126696     0.004307
CU358   CU        0.735610    0.377105    0.127926     0.006663
NI359   NI        0.734264    0.410294    0.158844     0.004307
NI360   NI        0.766976    0.374337    0.159396     0.004307
NI361   NI        0.766275    0.413979    0.127569     0.004307
NI362   NI        0.799744    0.410746    0.159198     0.004307
NI363   NI        0.104860    0.481260    0.160092     0.004307
NI364   NI        0.139315    0.446011    0.161643     0.004307
NI365   NI        0.139715    0.480903    0.124283     0.004307
NI366   NI        0.170537    0.448197    0.124335     0.004307
NI367   NI        0.169713    0.482841    0.158247     0.004307
CU368   CU        0.203850    0.450660    0.157008     0.006663
NI369   NI        0.204909    0.486067    0.125354     0.004307
CU370   CU        0.260745    0.448919    0.134557     0.006663
NI371   NI        0.243084    0.485123    0.153704     0.004307
NI372   NI        0.287308    0.444906    0.172190     0.004307
NI373   NI        0.280422    0.485161    0.121127     0.004307
NI374   NI        0.311574    0.448928    0.125952     0.004307
NI375   NI        0.312155    0.483588    0.156659     0.004307
NI376   NI        0.349582    0.447472    0.153543     0.004307
NI377   NI        0.347353    0.482270    0.123906     0.004307
NI378   NI        0.382883    0.446119    0.124037     0.004307
NI379   NI        0.383221    0.483295    0.157395     0.004307
CU380   CU        0.416342    0.446009    0.157948     0.006663
NI381   NI        0.417471    0.480940    0.122855     0.004307
CU382   CU        0.452783    0.445274    0.122088     0.006663
NI383   NI        0.450835    0.481789    0.154100     0.004307
NI384   NI        0.485588    0.445369    0.154814     0.004307
NI385   NI        0.487462    0.483051    0.121652     0.004307
NI386   NI        0.521030    0.446159    0.122297     0.004307
NI387   NI        0.521421    0.481632    0.156897     0.004307
NI388   NI        0.557523    0.447281    0.154161     0.004307
NI389   NI        0.557013    0.481930    0.124582     0.004307
NI390   NI        0.591916    0.446775    0.122614     0.004307
NI391   NI        0.592950    0.482112    0.154544     0.004307
NI392   NI        0.629604    0.445830    0.154806     0.004307
CU393   CU        0.628226    0.482622    0.123905     0.006663
NI394   NI        0.663963    0.446128    0.124723     0.004307
NI395   NI        0.662847    0.482556    0.155746     0.004307
NI396   NI        0.699444    0.446339    0.157500     0.004307
NI397   NI        0.699524    0.480469    0.126354     0.004307
NI398   NI        0.732401    0.444833    0.125474     0.004307
CU399   CU        0.730921    0.482739    0.160276     0.006663
NI400   NI        0.767874    0.445630    0.159570     0.004307
NI401   NI        0.765168    0.479431    0.126323     0.004307
NI402   NI        0.796042    0.482397    0.160664     0.004307
NI403   NI        0.109865    0.554296    0.156309     0.004307
NI404   NI        0.136486    0.516516    0.156844     0.004307
CU405   CU        0.140824    0.551993    0.124814     0.006663
NI406   NI        0.172072    0.516103    0.123041     0.004307
CU407   CU        0.170478    0.550363    0.156645     0.006663
NI408   NI        0.204655    0.516556    0.159182     0.004307
NI409   NI        0.206769    0.552278    0.122937     0.004307
CU410   CU        0.241732    0.516972    0.124204     0.006663
NI411   NI        0.239675    0.552204    0.155035     0.004307
NI412   NI        0.276765    0.519439    0.154798     0.004307
CU413   CU        0.272726    0.552890    0.124275     0.006663
NI414   NI        0.311567    0.518947    0.125436     0.004307
NI415   NI        0.310124    0.556139    0.157087     0.004307
CU416   CU        0.347130    0.517762    0.156902     0.006663
NI417   NI        0.346201    0.552118    0.124621     0.004307
NI418   NI        0.380788    0.517107    0.122370     0.004307
CU419   CU        0.382802    0.550472    0.154481     0.006663
NI420   NI        0.419458    0.515047    0.152824     0.004307
CU421   CU        0.416634    0.552138    0.122213     0.006663
NI422   NI        0.451968    0.516905    0.121233     0.004307
NI423   NI        0.451977    0.551552    0.155670     0.004307
CU424   CU        0.483761    0.517182    0.156949     0.006663
CU425   CU        0.487838    0.552151    0.124064     0.006663
NI426   NI        0.521299    0.517072    0.122854     0.004307
CU427   CU        0.523328    0.551883    0.152541     0.006663
NI428   NI        0.558600    0.516293    0.154267     0.004307
NI429   NI        0.558336    0.553446    0.122040     0.004307
CU430   CU        0.592208    0.517407    0.121953     0.006663
NI431   NI        0.592958    0.552934    0.153566     0.004307
NI432   NI        0.626577    0.518605    0.155532     0.004307
NI433   NI        0.627399    0.551632    0.123793     0.004307
NI434   NI        0.663331    0.518514    0.124998     0.004307
NI435   NI        0.663591    0.550998    0.155633     0.004307
NI436   NI        0.698439    0.517221    0.158044     0.004307
NI437   NI        0.695885    0.553036    0.126782     0.004307
NI438   NI        0.731031    0.515658    0.127257     0.004307
NI439   NI        0.730685    0.550939    0.157650     0.004307
NI440   NI        0.765159    0.518378    0.159422     0.004307
NI441   NI        0.762720    0.553084    0.126047     0.004307
NI442   NI        0.795647    0.550446    0.159365     0.004307
CU443   CU        0.141045    0.587020    0.157306     0.006663
NI444   NI        0.173664    0.586233    0.125588     0.004307
NI445   NI        0.175957    0.620858    0.156520     0.004307
NI446   NI        0.207848    0.587680    0.155467     0.004307
NI447   NI        0.207395    0.619249    0.123956     0.004307
NI448   NI        0.240985    0.585786    0.125159     0.004307
NI449   NI        0.241278    0.622301    0.156843     0.004307
NI450   NI        0.277592    0.588396    0.156244     0.004307
CU451   CU        0.275660    0.621448    0.124279     0.006663
NI452   NI        0.310058    0.590874    0.125892     0.004307
NI453   NI        0.310740    0.623617    0.156105     0.004307
NI454   NI        0.345467    0.592184    0.155560     0.004307
CU455   CU        0.345633    0.625451    0.123144     0.006663
NI456   NI        0.381035    0.589597    0.126343     0.004307
NI457   NI        0.381059    0.625160    0.155162     0.004307
NI458   NI        0.416964    0.585384    0.155693     0.004307
NI459   NI        0.416573    0.623089    0.122978     0.004307
NI460   NI        0.450573    0.589912    0.123165     0.004307
NI461   NI        0.453908    0.619509    0.156599     0.004307
NI462   NI        0.485980    0.585505    0.155902     0.004307
NI463   NI        0.485636    0.621006    0.123670     0.004307
NI464   NI        0.523895    0.586057    0.123922     0.004307
CU465   CU        0.523342    0.623389    0.155342     0.006663
NI466   NI        0.558038    0.586692    0.155007     0.004307
NI467   NI        0.556406    0.624586    0.123718     0.004307
NI468   NI        0.591765    0.587850    0.122936     0.004307
NI469   NI        0.589700    0.620908    0.155793     0.004307
CU470   CU        0.626113    0.587637    0.157035     0.006663
CU471   CU        0.629657    0.618579    0.123149     0.006663
NI472   NI        0.661452    0.585218    0.124628     0.004307
NI473   NI        0.661574    0.621998    0.159419     0.004307
NI474   NI        0.695612    0.588012    0.158520     0.004307
NI475   NI        0.693088    0.621195    0.125565     0.004307
CU476   CU        0.731064    0.585307    0.126764     0.006663
NI477   NI        0.728211    0.622591    0.155142     0.004307
CU478   CU        0.764848    0.585480    0.160288     0.006663
NI479   NI        0.206963    0.654690    0.157718     0.004307
NI480   NI        0.241124    0.653622    0.126371     0.004307
NI481   NI        0.241529    0.687570    0.158185     0.004307
CU482   CU        0.276870    0.654843    0.156112     0.006663
NI483   NI        0.276538    0.689376    0.126677     0.004307
NI484   NI        0.310809    0.654595    0.123967     0.004307
NI485   NI        0.312582    0.691720    0.158351     0.004307
NI486   NI        0.344819    0.658243    0.155569     0.004307
NI487   NI        0.347816    0.694350    0.124569     0.004307
NI488   NI        0.378891    0.658236    0.123687     0.004307
CU489   CU        0.380837    0.692862    0.158519     0.006663
CU490   CU        0.415602    0.658784    0.156607     0.006663
CU491   CU        0.416988    0.693966    0.127114     0.006663
CU492   CU        0.452236    0.655164    0.125253     0.006663
NI493   NI        0.452861    0.691563    0.157915     0.004307
CU494   CU        0.483850    0.657249    0.156889     0.006663
NI495   NI        0.486870    0.691174    0.125630     0.004307
CU496   CU        0.523397    0.657580    0.124646     0.006663
NI497   NI        0.520727    0.691541    0.157707     0.004307
NI498   NI        0.556271    0.657246    0.156438     0.004307
NI499   NI        0.556080    0.691430    0.126130     0.004307
CU500   CU        0.591473    0.656756    0.124385     0.006663
NI501   NI        0.592339    0.689453    0.156829     0.004307
NI502   NI        0.627813    0.656102    0.156172     0.004307
NI503   NI        0.625818    0.690112    0.126088     0.004307
NI504   NI        0.659881    0.653073    0.125363     0.004307
NI505   NI        0.658107    0.689362    0.160182     0.004307
NI506   NI        0.691940    0.655110    0.158045     0.004307
NI507   NI        0.277526    0.723208    0.156653     0.004307
CU508   CU        0.313103    0.725969    0.125969     0.006663
NI509   NI        0.310573    0.757717    0.160891     0.004307
NI510   NI        0.346358    0.725863    0.158268     0.004307
NI511   NI        0.346306    0.758820    0.126220     0.004307
NI512   NI        0.382499    0.724779    0.125371     0.004307
CU513   CU        0.380901    0.758005    0.160073     0.006663
NI514   NI        0.416651    0.728612    0.158053     0.004307
NI515   NI        0.419715    0.761282    0.127138     0.004307
NI516   NI        0.450939    0.726858    0.127863     0.004307
CU517   CU        0.450139    0.760558    0.158811     0.006663
NI518   NI        0.488141    0.725165    0.158668     0.004307
NI519   NI        0.485149    0.757972    0.128800     0.004307
NI520   NI        0.522377    0.726386    0.125900     0.004307
CU521   CU        0.522938    0.757050    0.159415     0.006663
CU522   CU        0.557261    0.727497    0.159576     0.006663
NI523   NI        0.555172    0.760980    0.126688     0.004307
NI524   NI        0.593469    0.725890    0.129090     0.004307
NI525   NI        0.589866    0.757723    0.160563     0.004307
NI526   NI        0.625443    0.723320    0.157590     0.004307
NI527   NI        0.344050    0.788492    0.158699     0.004307
NI528   NI        0.415904    0.792603    0.158291     0.004307
NI529   NI        0.490344    0.792577    0.159491     0.004307
CU530   CU        0.557506    0.791520    0.160449     0.006663
NI531   NI        0.311772    0.072308    0.226841     0.004307
NI532   NI        0.381826    0.070841    0.226275     0.004307
NI533   NI        0.419693    0.070729    0.189665     0.004307
NI534   NI        0.452752    0.070910    0.225900     0.004307
NI535   NI        0.487249    0.069298    0.194829     0.004307
NI536   NI        0.519832    0.070934    0.225580     0.004307
NI537   NI        0.591174    0.071252    0.228314     0.004307
NI538   NI        0.246181    0.135718    0.228036     0.004307
NI539   NI        0.277964    0.102322    0.227627     0.004307
NI540   NI        0.277234    0.138257    0.194108     0.004307
NI541   NI        0.309465    0.104218    0.192916     0.004307
NI542   NI        0.310738    0.133883    0.226135     0.004307
NI543   NI        0.346181    0.101640    0.225035     0.004307
NI544   NI        0.346899    0.134010    0.190932     0.004307
NI545   NI        0.381751    0.102068    0.191725     0.004307
NI546   NI        0.380454    0.132192    0.224935     0.004307
NI547   NI        0.416846    0.099991    0.225164     0.004307
NI548   NI        0.414642    0.134861    0.192173     0.004307
CU549   CU        0.451788    0.101866    0.190796     0.006663
CU550   CU        0.450384    0.133111    0.226230     0.006663
CU551   CU        0.485207    0.101747    0.226470     0.006663
NI552   NI        0.484725    0.135029    0.188536     0.004307
CU553   CU        0.519593    0.100259    0.189827     0.006663
NI554   NI        0.518184    0.133454    0.222445     0.004307
NI555   NI        0.556403    0.101365    0.223597     0.004307
NI556   NI        0.555187    0.136009    0.191148     0.004307
NI557   NI        0.591960    0.101334    0.191566     0.004307
CU558   CU        0.592110    0.133358    0.222759     0.006663
CU559   CU        0.626289    0.102029    0.226103     0.006663
NI560   NI        0.625746    0.137635    0.193490     0.004307
NI561   NI        0.662025    0.133881    0.227587     0.004307
NI562   NI        0.174078    0.202756    0.227401     0.004307
NI563   NI        0.210435    0.169671    0.228657     0.004307
NI564   NI        0.207852    0.206071    0.193980     0.004307
NI565   NI        0.245612    0.173379    0.193057     0.004307
NI566   NI        0.240872    0.204664    0.225224     0.004307
NI567   NI        0.278205    0.167641    0.227444     0.004307
NI568   NI        0.278513    0.202330    0.194789     0.004307
CU569   CU        0.312574    0.168732    0.192799     0.006663
NI570   NI        0.312635    0.198651    0.226390     0.004307
CU571   CU        0.347986    0.167396    0.224256     0.006663
CU572   CU        0.347330    0.200106    0.191277     0.006663
NI573   NI        0.381448    0.167660    0.189791     0.004307
NI574   NI        0.383488    0.197582    0.223229     0.004307
NI575   NI        0.416044    0.166520    0.224627     0.004307
CU576   CU        0.414440    0.199362    0.189213     0.006663
NI577   NI        0.450527    0.168366    0.191020     0.004307
NI578   NI        0.447694    0.201773    0.223124     0.004307
NI579   NI        0.485835    0.165438    0.222815     0.004307
CU580   CU        0.488835    0.201653    0.189134     0.006663
CU581   CU        0.519872    0.167857    0.191847     0.006663
NI582   NI        0.522638    0.199120    0.223238     0.004307
NI583   NI        0.559237    0.166397    0.223647     0.004307
NI584   NI        0.556795    0.203797    0.190826     0.004307
NI585   NI        0.592636    0.166481    0.190739     0.004307
NI586   NI        0.594122    0.198869    0.224838     0.004307
NI587   NI        0.627916    0.167432    0.226398     0.004307
CU588   CU        0.626293    0.202628    0.192094     0.006663
CU589   CU        0.660895    0.167303    0.192547     0.006663
NI590   NI        0.662612    0.201246    0.227775     0.004307
NI591   NI        0.693722    0.169982    0.225856     0.004307
NI592   NI        0.690676    0.203784    0.193964     0.004307
CU593   CU        0.726535    0.201559    0.227464     0.006663
NI594   NI        0.104308    0.270656    0.226936     0.004307
NI595   NI        0.141642    0.235448    0.227306     0.004307
NI596   NI        0.138335    0.269236    0.194496     0.004307
NI597   NI        0.175894    0.239135    0.193178     0.004307
CU598   CU        0.172859    0.271880    0.225014     0.006663
NI599   NI        0.205413    0.233807    0.227727     0.004307
CU600   CU        0.205485    0.271091    0.191069     0.006663
NI601   NI        0.240466    0.237890    0.191688     0.004307
NI602   NI        0.238038    0.266172    0.228674     0.004307
NI603   NI        0.275197    0.234848    0.223983     0.004307
NI604   NI        0.278295    0.277173    0.210429     0.004307
NI605   NI        0.310876    0.237007    0.190861     0.004307
NI606   NI        0.317001    0.282756    0.238940     0.004307
NI607   NI        0.347234    0.245617    0.240826     0.004307
NI608   NI        0.346247    0.269777    0.185504     0.004307
NI609   NI        0.379854    0.234415    0.187636     0.004307
NI610   NI        0.380140    0.265940    0.220915     0.004307
NI611   NI        0.415344    0.235752    0.221295     0.004307
NI612   NI        0.420500    0.282167    0.214076     0.004307
NI613   NI        0.451326    0.233651    0.188118     0.004307
NI614   NI        0.455135    0.278144    0.240337     0.004307
NI615   NI        0.487680    0.247429    0.237072     0.004307
NI616   NI        0.487926    0.271187    0.187299     0.004307
NI617   NI        0.521682    0.233632    0.188450     0.004307
NI618   NI        0.518861    0.280470    0.238231     0.004307
NI619   NI        0.556924    0.248248    0.237989     0.004307
NI620   NI        0.560362    0.261905    0.194917     0.004307
CU621   CU        0.595546    0.236615    0.190772     0.006663
CU622   CU        0.597374    0.270470    0.227432     0.006663
NI623   NI        0.628460    0.237690    0.226239     0.004307
CU624   CU        0.630122    0.269529    0.189177     0.006663
CU625   CU        0.660138    0.238394    0.189939     0.006663
NI626   NI        0.663969    0.270679    0.222403     0.004307
NI627   NI        0.694810    0.237128    0.225270     0.004307
NI628   NI        0.695535    0.270331    0.189494     0.004307
NI629   NI        0.729015    0.237015    0.192085     0.004307
NI630   NI        0.726968    0.271166    0.222505     0.004307
CU631   CU        0.761838    0.242258    0.231439     0.006663
NI632   NI        0.762669    0.270707    0.193045     0.004307
NI633   NI        0.795316    0.272058    0.227644     0.004307
NI634   NI        0.073378    0.304930    0.227626     0.004307
NI635   NI        0.107899    0.304036    0.194667     0.004307
NI636   NI        0.104176    0.338666    0.226217     0.004307
NI637   NI        0.137076    0.304205    0.226000     0.004307
CU638   CU        0.136072    0.338440    0.192942     0.006663
NI639   NI        0.171866    0.307054    0.193911     0.004307
NI640   NI        0.172236    0.338721    0.226467     0.004307
NI641   NI        0.207214    0.304070    0.225191     0.004307
NI642   NI        0.219515    0.345294    0.203642     0.004307
NI643   NI        0.250362    0.314001    0.204567     0.004307
NI644   NI        0.251466    0.349089    0.236500     0.004307
CU645   CU        0.285214    0.312703    0.236222     0.006663
NI646   NI        0.285820    0.349823    0.205102     0.004307
NI647   NI        0.321405    0.320373    0.210077     0.004307
NI648   NI        0.315534    0.350159    0.242397     0.004307
CU649   CU        0.352306    0.318618    0.243088     0.006663
NI650   NI        0.353681    0.351139    0.211517     0.004307
NI651   NI        0.389904    0.318641    0.212615     0.004307
CU652   CU        0.385636    0.348991    0.243490     0.006663
NI653   NI        0.422811    0.314913    0.242914     0.004307
NI654   NI        0.420976    0.348281    0.206228     0.004307
NI655   NI        0.453027    0.314872    0.209168     0.004307
NI656   NI        0.455694    0.348523    0.236597     0.004307
CU657   CU        0.486263    0.312670    0.239652     0.006663
NI658   NI        0.488398    0.344143    0.187182     0.004307
NI659   NI        0.521764    0.309106    0.186422     0.004307
NI660   NI        0.518882    0.349690    0.241574     0.004307
NI661   NI        0.550256    0.317390    0.240566     0.004307
CU662   CU        0.558311    0.339930    0.182624     0.006663
NI663   NI        0.588482    0.318014    0.217894     0.004307
NI664   NI        0.586091    0.348521    0.249142     0.004307
CU665   CU        0.630869    0.303820    0.226976     0.006663
NI666   NI        0.626496    0.338858    0.185702     0.004307
CU667   CU        0.659530    0.306488    0.190783     0.006663
CU668   CU        0.662967    0.339664    0.222895     0.006663
NI669   NI        0.693810    0.303756    0.223959     0.004307
NI670   NI        0.696982    0.338953    0.188492     0.004307
NI671   NI        0.729447    0.305581    0.191790     0.004307
NI672   NI        0.729016    0.336593    0.223654     0.004307
CU673   CU        0.764049    0.306116    0.224874     0.006663
NI674   NI        0.763367    0.342359    0.193942     0.004307
CU675   CU        0.796363    0.307912    0.194328     0.006663
NI676   NI        0.797522    0.340438    0.225090     0.004307
NI677   NI        0.832072    0.306307    0.224816     0.004307
NI678   NI        0.072884    0.376130    0.227649     0.004307
NI679   NI        0.074825    0.407912    0.191609     0.004307
CU680   CU        0.105354    0.375113    0.194219     0.006663
NI681   NI        0.105883    0.410916    0.225636     0.004307
CU682   CU        0.137369    0.373588    0.227500     0.006663
NI683   NI        0.137376    0.408576    0.191084     0.004307
NI684   NI        0.178481    0.380139    0.170875     0.004307
NI685   NI        0.167162    0.414174    0.224957     0.004307
NI686   NI        0.219787    0.380282    0.236597     0.004307
NI687   NI        0.208056    0.412985    0.184757     0.004307
NI688   NI        0.250780    0.381058    0.203899     0.004307
CU689   CU        0.249957    0.413456    0.234507     0.006663
NI690   NI        0.283254    0.381906    0.238108     0.004307
NI691   NI        0.282703    0.414162    0.205007     0.004307
CU692   CU        0.317075    0.382750    0.209379     0.006663
NI693   NI        0.315822    0.415399    0.240489     0.004307
CU694   CU        0.350266    0.382833    0.241905     0.006663
NI695   NI        0.346192    0.412486    0.186935     0.004307
NI696   NI        0.387811    0.382089    0.212744     0.004307
CU697   CU        0.382780    0.415845    0.242433     0.006663
NI698   NI        0.427225    0.383586    0.232573     0.004307
NI699   NI        0.417526    0.411023    0.189393     0.004307
NI700   NI        0.455294    0.376650    0.190100     0.004307
NI701   NI        0.454961    0.418221    0.238600     0.004307
NI702   NI        0.488409    0.377749    0.221341     0.004307
CU703   CU        0.487943    0.411930    0.189038     0.006663
CU704   CU        0.520884    0.378264    0.188294     0.006663
CU705   CU        0.523293    0.413669    0.220374     0.006663
CU706   CU        0.552602    0.380634    0.241783     0.006663
NI707   NI        0.557334    0.413876    0.185737     0.004307
NI708   NI        0.589930    0.375721    0.182728     0.004307
NI709   NI        0.587132    0.414392    0.240086     0.004307
NI710   NI        0.619102    0.379238    0.247821     0.004307
NI711   NI        0.626860    0.411061    0.184505     0.004307
NI712   NI        0.666090    0.373992    0.190205     0.004307
NI713   NI        0.652418    0.414013    0.240655     0.004307
NI714   NI        0.682074    0.376919    0.235567     0.004307
NI715   NI        0.700566    0.412578    0.189126     0.004307
NI716   NI        0.733773    0.376754    0.190129     0.004307
NI717   NI        0.731920    0.410072    0.219607     0.004307
NI718   NI        0.767235    0.376343    0.224930     0.004307
NI719   NI        0.767572    0.412718    0.192296     0.004307
NI720   NI        0.797634    0.375397    0.192390     0.004307
CU721   CU        0.801178    0.411759    0.224823     0.006663
NI722   NI        0.831957    0.375940    0.224924     0.004307
NI723   NI        0.863695    0.409818    0.229044     0.004307
NI724   NI        0.072142    0.443995    0.226794     0.004307
CU725   CU        0.073154    0.482440    0.192660     0.006663
NI726   NI        0.105699    0.445004    0.191467     0.004307
NI727   NI        0.104021    0.479906    0.225072     0.004307
CU728   CU        0.135573    0.448027    0.225755     0.006663
NI729   NI        0.137374    0.481599    0.190243     0.004307
NI730   NI        0.171509    0.448526    0.193115     0.004307
NI731   NI        0.169563    0.479425    0.224284     0.004307
CU732   CU        0.206017    0.445681    0.219213     0.006663
NI733   NI        0.204082    0.482406    0.189275     0.004307
NI734   NI        0.249901    0.443562    0.201731     0.004307
NI735   NI        0.247440    0.483789    0.236244     0.004307
NI736   NI        0.281428    0.446725    0.236111     0.004307
NI737   NI        0.275978    0.487448    0.185943     0.004307
NI738   NI        0.318520    0.446082    0.206760     0.004307
CU739   CU        0.312402    0.478298    0.239897     0.006663
NI740   NI        0.349024    0.448622    0.238754     0.004307
NI741   NI        0.348566    0.484634    0.188486     0.004307
NI742   NI        0.383990    0.447111    0.187511     0.004307
NI743   NI        0.383008    0.486485    0.220441     0.004307
NI744   NI        0.418665    0.447268    0.221050     0.004307
NI745   NI        0.418754    0.482398    0.190542     0.004307
CU746   CU        0.453178    0.450834    0.187862     0.006663
CU747   CU        0.450612    0.482189    0.221874     0.006663
CU748   CU        0.492468    0.446021    0.236411     0.006663
NI749   NI        0.487646    0.481642    0.186403     0.004307
NI750   NI        0.522034    0.447879    0.191395     0.004307
CU751   CU        0.519518    0.484618    0.224587     0.006663
CU752   CU        0.551844    0.444716    0.236869     0.006663
CU753   CU        0.557616    0.481286    0.185399     0.006663
NI754   NI        0.591797    0.446572    0.185976     0.004307
NI755   NI        0.592584    0.484823    0.219962     0.004307
NI756   NI        0.620435    0.448910    0.240590     0.004307
NI757   NI        0.626460    0.483637    0.185359     0.004307
NI758   NI        0.665501    0.450503    0.185271     0.004307
NI759   NI        0.652820    0.479784    0.237447     0.004307
NI760   NI        0.685681    0.447361    0.239356     0.004307
NI761   NI        0.697802    0.483761    0.188859     0.004307
NI762   NI        0.733717    0.447045    0.192285     0.004307
NI763   NI        0.732972    0.484085    0.225694     0.004307
NI764   NI        0.767330    0.446322    0.223864     0.004307
CU765   CU        0.767434    0.482714    0.194595     0.006663
NI766   NI        0.799674    0.448160    0.191474     0.004307
CU767   CU        0.799934    0.481244    0.228283     0.006663
NI768   NI        0.829852    0.446185    0.227905     0.004307
NI769   NI        0.828827    0.482772    0.194239     0.004307
CU770   CU        0.071965    0.517058    0.227544     0.006663
NI771   NI        0.105714    0.517864    0.192053     0.004307
NI772   NI        0.105603    0.550816    0.225444     0.004307
NI773   NI        0.134254    0.514031    0.226091     0.004307
NI774   NI        0.138396    0.551776    0.192675     0.004307
NI775   NI        0.168905    0.514330    0.190054     0.004307
NI776   NI        0.169031    0.539194    0.226280     0.004307
NI777   NI        0.207093    0.519931    0.220852     0.004307
NI778   NI        0.206836    0.551344    0.185478     0.004307
NI779   NI        0.240229    0.520283    0.187039     0.004307
NI780   NI        0.239181    0.553891    0.217993     0.004307
CU781   CU        0.281549    0.513670    0.237983     0.006663
NI782   NI        0.274380    0.554723    0.188126     0.004307
NI783   NI        0.315291    0.517649    0.186388     0.004307
NI784   NI        0.314394    0.547956    0.237479     0.004307
NI785   NI        0.348379    0.520169    0.216911     0.004307
NI786   NI        0.346631    0.552184    0.186506     0.004307
CU787   CU        0.381705    0.517532    0.186699     0.006663
NI788   NI        0.384281    0.548185    0.221678     0.004307
CU789   CU        0.420374    0.517786    0.223228     0.006663
NI790   NI        0.416724    0.547379    0.188476     0.004307
CU791   CU        0.451558    0.514147    0.186910     0.006663
CU792   CU        0.452849    0.548605    0.217268     0.006663
NI793   NI        0.484058    0.517947    0.223299     0.004307
CU794   CU        0.488618    0.552005    0.188004     0.006663
CU795   CU        0.518619    0.515955    0.190326     0.006663
NI796   NI        0.519836    0.549582    0.224095     0.004307
CU797   CU        0.557377    0.514839    0.238010     0.006663
NI798   NI        0.555979    0.552805    0.185611     0.004307
NI799   NI        0.595740    0.517517    0.189141     0.004307
NI800   NI        0.590601    0.551022    0.217276     0.004307
NI801   NI        0.628748    0.515900    0.221569     0.004307
NI802   NI        0.626616    0.552851    0.187707     0.004307
NI803   NI        0.663853    0.515801    0.189114     0.004307
NI804   NI        0.656923    0.547146    0.239728     0.004307
NI805   NI        0.700467    0.517425    0.221797     0.004307
NI806   NI        0.695067    0.553304    0.189408     0.004307
NI807   NI        0.733855    0.517440    0.191161     0.004307
CU808   CU        0.732196    0.554330    0.225271     0.006663
NI809   NI        0.766685    0.517917    0.225331     0.004307
NI810   NI        0.764623    0.553426    0.193158     0.004307
NI811   NI        0.797578    0.515820    0.191178     0.004307
NI812   NI        0.797428    0.551414    0.222405     0.004307
NI813   NI        0.829469    0.517292    0.228137     0.004307
NI814   NI        0.043565    0.587161    0.259472     0.004307
NI815   NI        0.106322    0.585022    0.192791     0.004307
NI816   NI        0.105547    0.622962    0.226603     0.004307
CU817   CU        0.134883    0.589663    0.227225     0.006663
NI818   NI        0.140216    0.619016    0.192978     0.004307
CU819   CU        0.179676    0.580024    0.233642     0.006663
NI820   NI        0.171847    0.623301    0.226901     0.004307
NI821   NI        0.216849    0.600354    0.226867     0.004307
NI822   NI        0.205806    0.622566    0.190421     0.004307
NI823   NI        0.241686    0.587353    0.188668     0.004307
NI824   NI        0.247064    0.629028    0.236206     0.004307
NI825   NI        0.279235    0.588630    0.218379     0.004307
NI826   NI        0.276577    0.623183    0.189803     0.004307
NI827   NI        0.313404    0.589709    0.187540     0.004307
CU828   CU        0.310697    0.622116    0.224204     0.006663
NI829   NI        0.347914    0.589675    0.222058     0.004307
CU830   CU        0.344749    0.623546    0.188338     0.006663
NI831   NI        0.393321    0.589646    0.233774     0.004307
NI832   NI        0.379018    0.628408    0.220762     0.004307
NI833   NI        0.438651    0.587526    0.232570     0.004307
NI834   NI        0.416242    0.625643    0.186601     0.004307
NI835   NI        0.453518    0.582726    0.188297     0.004307
NI836   NI        0.449294    0.632187    0.230267     0.004307
NI837   NI        0.486182    0.583201    0.224317     0.004307
CU838   CU        0.490187    0.621518    0.184556     0.006663
NI839   NI        0.521672    0.588054    0.186125     0.004307
CU840   CU        0.520135    0.618690    0.221878     0.006663
CU841   CU        0.555032    0.586429    0.220292     0.006663
CU842   CU        0.557373    0.623248    0.187214     0.006663
NI843   NI        0.589552    0.587127    0.187925     0.004307
NI844   NI        0.588582    0.618889    0.219690     0.004307
NI845   NI        0.623316    0.585682    0.219944     0.004307
NI846   NI        0.629763    0.620999    0.190076     0.004307
NI847   NI        0.659240    0.585362    0.190160     0.004307
NI848   NI        0.662071    0.624013    0.225242     0.004307
NI849   NI        0.699452    0.588045    0.222667     0.004307
NI850   NI        0.694805    0.620508    0.191439     0.004307
NI851   NI        0.732599    0.589052    0.188588     0.004307
CU852   CU        0.731696    0.619807    0.226502     0.006663
CU853   CU        0.763131    0.587049    0.226244     0.006663
NI854   NI        0.763685    0.619173    0.195377     0.004307
NI855   NI        0.796047    0.589275    0.193658     0.004307
NI856   NI        0.795902    0.619629    0.228853     0.004307
NI857   NI        0.827328    0.586774    0.227541     0.004307
NI858   NI        0.139515    0.654547    0.227218     0.004307
CU859   CU        0.175299    0.654582    0.194027     0.006663
NI860   NI        0.173846    0.686001    0.228934     0.004307
NI861   NI        0.208121    0.654962    0.224720     0.004307
NI862   NI        0.207848    0.689225    0.192993     0.004307
NI863   NI        0.244053    0.656694    0.191193     0.004307
NI864   NI        0.240885    0.692825    0.224132     0.004307
NI865   NI        0.277840    0.658571    0.223554     0.004307
NI866   NI        0.279380    0.690212    0.190805     0.004307
CU867   CU        0.312807    0.658727    0.189979     0.006663
NI868   NI        0.310320    0.691172    0.223881     0.004307
NI869   NI        0.343737    0.658315    0.223950     0.004307
NI870   NI        0.346302    0.692422    0.190511     0.004307
NI871   NI        0.380099    0.658901    0.188142     0.004307
CU872   CU        0.380826    0.692394    0.224049     0.006663
NI873   NI        0.414868    0.660227    0.221596     0.004307
NI874   NI        0.414469    0.693938    0.189000     0.004307
NI875   NI        0.451101    0.660389    0.193390     0.004307
NI876   NI        0.450725    0.678484    0.238998     0.004307
NI877   NI        0.488637    0.654060    0.223536     0.004307
NI878   NI        0.487718    0.692415    0.189687     0.004307
NI879   NI        0.520225    0.658906    0.188976     0.004307
NI880   NI        0.524288    0.693515    0.222358     0.004307
NI881   NI        0.552552    0.654763    0.220508     0.004307
NI882   NI        0.557762    0.689041    0.189039     0.004307
NI883   NI        0.591534    0.656944    0.191177     0.004307
NI884   NI        0.590268    0.689970    0.224472     0.004307
NI885   NI        0.631582    0.658414    0.226962     0.004307
CU886   CU        0.627220    0.690132    0.193999     0.006663
CU887   CU        0.661495    0.656277    0.191794     0.006663
NI888   NI        0.664760    0.691472    0.227538     0.004307
NI889   NI        0.697844    0.656509    0.222835     0.004307
NI890   NI        0.694006    0.691139    0.192530     0.004307
NI891   NI        0.728917    0.651359    0.188784     0.004307
NI892   NI        0.730687    0.690504    0.228136     0.004307
NI893   NI        0.762989    0.652909    0.229553     0.004307
NI894   NI        0.207565    0.722835    0.228933     0.004307
NI895   NI        0.242126    0.725471    0.192786     0.004307
CU896   CU        0.241275    0.758585    0.225051     0.006663
NI897   NI        0.277383    0.723663    0.225792     0.004307
NI898   NI        0.278585    0.755285    0.193718     0.004307
NI899   NI        0.311134    0.723906    0.191371     0.004307
CU900   CU        0.311058    0.758201    0.224551     0.006663
NI901   NI        0.344256    0.724887    0.224959     0.004307
NI902   NI        0.345809    0.758742    0.193001     0.004307
NI903   NI        0.380243    0.725819    0.193143     0.004307
NI904   NI        0.381282    0.759509    0.225268     0.004307
NI905   NI        0.415543    0.728196    0.224771     0.004307
NI906   NI        0.415205    0.760451    0.190052     0.004307
NI907   NI        0.453289    0.726587    0.189124     0.004307
NI908   NI        0.453793    0.761374    0.224649     0.004307
NI909   NI        0.489698    0.726750    0.223314     0.004307
NI910   NI        0.485914    0.761082    0.191410     0.004307
NI911   NI        0.523849    0.725925    0.192115     0.004307
NI912   NI        0.522823    0.759967    0.226416     0.004307
NI913   NI        0.558512    0.726165    0.226590     0.004307
NI914   NI        0.557895    0.758744    0.194312     0.004307
CU915   CU        0.591987    0.723634    0.191651     0.006663
NI916   NI        0.590658    0.757679    0.228043     0.004307
CU917   CU        0.629705    0.723904    0.227227     0.006663
CU918   CU        0.623577    0.754269    0.194670     0.006663
NI919   NI        0.658400    0.723676    0.193156     0.004307
NI920   NI        0.660103    0.758171    0.227927     0.004307
NI921   NI        0.697914    0.723981    0.227293     0.004307
NI922   NI        0.275547    0.791018    0.225862     0.004307
NI923   NI        0.312005    0.789112    0.191268     0.004307
NI924   NI        0.313518    0.821438    0.226142     0.004307
CU925   CU        0.346087    0.791810    0.225317     0.006663
NI926   NI        0.379289    0.792427    0.191013     0.004307
NI927   NI        0.382350    0.824566    0.223659     0.004307
CU928   CU        0.417300    0.791657    0.223363     0.006663
NI929   NI        0.414598    0.822049    0.192885     0.004307
CU930   CU        0.452426    0.792616    0.192642     0.006663
CU931   CU        0.451640    0.824268    0.222606     0.006663
NI932   NI        0.489475    0.793509    0.226136     0.004307
NI933   NI        0.488037    0.824651    0.191903     0.004307
NI934   NI        0.524343    0.792888    0.192257     0.004307
NI935   NI        0.520534    0.823950    0.227135     0.004307
CU936   CU        0.558171    0.792638    0.224349     0.006663
NI937   NI        0.590415    0.791091    0.193192     0.004307
NI938   NI        0.593558    0.825472    0.226003     0.004307
NI939   NI        0.624833    0.789835    0.227157     0.004307
NI940   NI        0.242724    0.069763    0.294656     0.004307
NI941   NI        0.277200    0.069838    0.259699     0.004307
CU942   CU        0.310482    0.068234    0.295151     0.006663
NI943   NI        0.344667    0.035039    0.293305     0.004307
CU944   CU        0.346583    0.069277    0.261769     0.006663
NI945   NI        0.380377    0.037081    0.261644     0.004307
NI946   NI        0.381422    0.065425    0.295758     0.004307
NI947   NI        0.415506    0.035747    0.294574     0.004307
NI948   NI        0.415140    0.067763    0.260800     0.004307
CU949   CU        0.450789    0.038201    0.257082     0.006663
NI950   NI        0.453511    0.066879    0.295943     0.004307
NI951   NI        0.523946    0.004743    0.291380     0.004307
CU952   CU        0.488178    0.069166    0.259141     0.006663
NI953   NI        0.522140    0.036623    0.257252     0.004307
NI954   NI        0.522373    0.067882    0.292639     0.004307
NI955   NI        0.558560    0.035812    0.293373     0.004307
CU956   CU        0.558525    0.066523    0.260232     0.006663
NI957   NI        0.593141    0.067716    0.296183     0.004307
NI958   NI        0.628034    0.067397    0.258815     0.004307
NI959   NI        0.660334    0.072484    0.298100     0.004307
NI960   NI        0.175630    0.135250    0.295109     0.004307
NI961   NI        0.208102    0.101551    0.295336     0.004307
NI962   NI        0.209168    0.135356    0.261368     0.004307
NI963   NI        0.243858    0.102296    0.260385     0.004307
NI964   NI        0.243444    0.132407    0.293178     0.004307
NI965   NI        0.276807    0.099756    0.293571     0.004307
NI966   NI        0.278018    0.133255    0.261405     0.004307
NI967   NI        0.312875    0.101526    0.262124     0.004307
CU968   CU        0.310681    0.132736    0.293932     0.006663
NI969   NI        0.343549    0.100715    0.295856     0.004307
CU970   CU        0.346890    0.132162    0.257954     0.006663
NI971   NI        0.382379    0.100429    0.260567     0.004307
NI972   NI        0.382846    0.130473    0.294908     0.004307
NI973   NI        0.417334    0.098951    0.294886     0.004307
NI974   NI        0.416344    0.132847    0.258589     0.004307
NI975   NI        0.452046    0.101502    0.259585     0.004307
NI976   NI        0.447998    0.133226    0.293558     0.004307
CU977   CU        0.485878    0.100374    0.291786     0.006663
NI978   NI        0.483313    0.133637    0.257970     0.004307
NI979   NI        0.521614    0.102419    0.260568     0.004307
NI980   NI        0.524310    0.126283    0.299151     0.004307
NI981   NI        0.559522    0.097977    0.294091     0.004307
NI982   NI        0.561358    0.130243    0.259904     0.004307
NI983   NI        0.592845    0.098469    0.261362     0.004307
CU984   CU        0.592727    0.129668    0.294484     0.006663
NI985   NI        0.625028    0.098647    0.296082     0.004307
NI986   NI        0.627523    0.131623    0.260438     0.004307
NI987   NI        0.662521    0.099630    0.262292     0.004307
CU988   CU        0.659967    0.134803    0.295325     0.006663
NI989   NI        0.694626    0.102660    0.294865     0.004307
CU990   CU        0.695455    0.138290    0.261210     0.006663
NI991   NI        0.726795    0.134807    0.297597     0.004307
NI992   NI        0.106326    0.203782    0.293727     0.004307
NI993   NI        0.139171    0.168289    0.297051     0.004307
NI994   NI        0.137060    0.202182    0.258325     0.004307
CU995   CU        0.174537    0.169267    0.263331     0.006663
NI996   NI        0.171985    0.201299    0.292780     0.004307
NI997   NI        0.209149    0.164929    0.293972     0.004307
NI998   NI        0.206287    0.201092    0.259817     0.004307
NI999   NI        0.244058    0.167193    0.261072     0.004307
NI1000   NI        0.237611    0.198552    0.291431     0.004307
CU1001   CU        0.275423    0.167731    0.292182     0.006663
NI1002   NI        0.280812    0.213386    0.273588     0.004307
CU1003   CU        0.314957    0.163585    0.260663     0.006663
NI1004   NI        0.313405    0.191916    0.295370     0.004307
NI1005   NI        0.349077    0.162598    0.292474     0.004307
NI1006   NI        0.346824    0.198226    0.256673     0.004307
NI1007   NI        0.380894    0.165056    0.258124     0.004307
NI1008   NI        0.384092    0.196268    0.289336     0.004307
CU1009   CU        0.416058    0.163642    0.289726     0.006663
NI1010   NI        0.415726    0.197040    0.257836     0.004307
CU1011   CU        0.450279    0.165771    0.255650     0.006663
NI1012   NI        0.455216    0.213980    0.301950     0.004307
NI1013   NI        0.483455    0.170013    0.284859     0.004307
NI1014   NI        0.489249    0.213385    0.270343     0.004307
NI1015   NI        0.527077    0.182248    0.266925     0.004307
CU1016   CU        0.523543    0.211383    0.302295     0.006663
CU1017   CU        0.559217    0.160505    0.294258     0.006663
NI1018   NI        0.557726    0.217663    0.270263     0.004307
NI1019   NI        0.592998    0.162988    0.258497     0.004307
NI1020   NI        0.588710    0.219085    0.301612     0.004307
NI1021   NI        0.624910    0.163034    0.293907     0.004307
CU1022   CU        0.628676    0.201535    0.258593     0.006663
NI1023   NI        0.660859    0.166986    0.259698     0.004307
NI1024   NI        0.661806    0.198275    0.292848     0.004307
CU1025   CU        0.694035    0.166055    0.295655     0.006663
NI1026   NI        0.695056    0.201202    0.259991     0.004307
NI1027   NI        0.727647    0.170212    0.261001     0.004307
NI1028   NI        0.727142    0.201645    0.294346     0.004307
NI1029   NI        0.760226    0.170034    0.297597     0.004307
NI1030   NI        0.762714    0.204271    0.267489     0.004307
NI1031   NI        0.795731    0.199650    0.297593     0.004307
NI1032   NI        0.072619    0.237931    0.292794     0.004307
NI1033   NI        0.071993    0.272907    0.261021     0.004307
NI1034   NI        0.104055    0.237706    0.260612     0.004307
NI1035   NI        0.107073    0.271680    0.292760     0.004307
NI1036   NI        0.137810    0.237721    0.291661     0.004307
NI1037   NI        0.137605    0.269810    0.260259     0.004307
NI1038   NI        0.171032    0.234934    0.260537     0.004307
NI1039   NI        0.172180    0.270654    0.292721     0.004307
NI1040   NI        0.203081    0.234206    0.293566     0.004307
NI1041   NI        0.217845    0.277658    0.270074     0.004307
NI1042   NI        0.244922    0.242568    0.276631     0.004307
NI1043   NI        0.249960    0.279336    0.303747     0.004307
CU1044   CU        0.281477    0.249331    0.301762     0.006663
CU1045   CU        0.276137    0.269512    0.257864     0.006663
NI1046   NI        0.315863    0.248625    0.272838     0.004307
NI1047   NI        0.318933    0.281270    0.305526     0.004307
CU1048   CU        0.352582    0.248716    0.303554     0.006663
NI1049   NI        0.351099    0.280847    0.272190     0.004307
NI1050   NI        0.385860    0.249204    0.274414     0.004307
CU1051   CU        0.383801    0.281816    0.305550     0.006663
CU1052   CU        0.418361    0.248536    0.306066     0.006663
CU1053   CU        0.420252    0.279227    0.273158     0.006663
NI1054   NI        0.454052    0.246818    0.271522     0.004307
CU1055   CU        0.454393    0.279308    0.303721     0.006663
CU1056   CU        0.487594    0.244434    0.302047     0.006663
CU1057   CU        0.488042    0.278527    0.273075     0.006663
NI1058   NI        0.522131    0.245390    0.269270     0.004307
CU1059   CU        0.519526    0.277811    0.304552     0.006663
CU1060   CU        0.553593    0.246510    0.303839     0.006663
NI1061   NI        0.552231    0.281494    0.269663     0.004307
CU1062   CU        0.595804    0.235828    0.257219     0.006663
NI1063   NI        0.584670    0.281494    0.302217     0.004307
CU1064   CU        0.621547    0.248986    0.302178     0.006663
NI1065   NI        0.632871    0.270255    0.259836     0.004307
CU1066   CU        0.662975    0.235872    0.257900     0.006663
CU1067   CU        0.665421    0.273289    0.294513     0.006663
CU1068   CU        0.694166    0.236078    0.292319     0.006663
NI1069   NI        0.693802    0.270438    0.257822     0.004307
NI1070   NI        0.725845    0.233983    0.257805     0.004307
NI1071   NI        0.714526    0.277917    0.300098     0.004307
NI1072   NI        0.742080    0.245272    0.295632     0.004307
NI1073   NI        0.742505    0.277817    0.264857     0.004307
NI1074   NI        0.795762    0.236998    0.263305     0.004307
NI1075   NI        0.800283    0.270958    0.293611     0.004307
NI1076   NI        0.826086    0.235509    0.298105     0.004307
NI1077   NI        0.829312    0.274286    0.258225     0.004307
NI1078   NI        0.040572    0.341129    0.294820     0.004307
CU1079   CU        0.071852    0.305290    0.291686     0.006663
CU1080   CU        0.072662    0.339637    0.258489     0.006663
CU1081   CU        0.105967    0.306178    0.259782     0.006663
NI1082   NI        0.102511    0.340292    0.291775     0.004307
CU1083   CU        0.138630    0.305552    0.292407     0.006663
NI1084   NI        0.136617    0.340259    0.258372     0.004307
NI1085   NI        0.171322    0.303271    0.258452     0.004307
NI1086   NI        0.165857    0.341258    0.294078     0.004307
NI1087   NI        0.217708    0.312175    0.302729     0.004307
NI1088   NI        0.218950    0.348318    0.270380     0.004307
NI1089   NI        0.249280    0.312719    0.272047     0.004307
CU1090   CU        0.248912    0.346111    0.305804     0.006663
CU1091   CU        0.286152    0.310980    0.304172     0.006663
NI1092   NI        0.280415    0.344209    0.271437     0.004307
CU1093   CU        0.317633    0.314769    0.272147     0.006663
CU1094   CU        0.316158    0.345781    0.305304     0.006663
NI1095   NI        0.351426    0.314638    0.303619     0.004307
CU1096   CU        0.351312    0.350103    0.274154     0.006663
NI1097   NI        0.387716    0.313918    0.274066     0.004307
CU1098   CU        0.385623    0.345792    0.304998     0.006663
CU1099   CU        0.420089    0.312139    0.304882     0.006663
CU1100   CU        0.419744    0.346226    0.273844     0.006663
CU1101   CU        0.453805    0.312289    0.272707     0.006663
NI1102   NI        0.455285    0.346247    0.302833     0.004307
CU1103   CU        0.486340    0.312417    0.304099     0.006663
CU1104   CU        0.486774    0.349088    0.271885     0.006663
CU1105   CU        0.519597    0.311766    0.271488     0.006663
CU1106   CU        0.516926    0.346102    0.303638     0.006663
NI1107   NI        0.550934    0.312838    0.303959     0.004307
CU1108   CU        0.550188    0.348416    0.274470     0.006663
NI1109   NI        0.597175    0.306367    0.260005     0.004307
CU1110   CU        0.601722    0.343123    0.293229     0.006663
NI1111   NI        0.629472    0.305219    0.291944     0.004307
NI1112   NI        0.631894    0.338186    0.261508     0.004307
NI1113   NI        0.665571    0.307280    0.259684     0.004307
CU1114   CU        0.648864    0.347203    0.303811     0.006663
NI1115   NI        0.682574    0.313481    0.303379     0.004307
NI1116   NI        0.684811    0.346110    0.268819     0.004307
NI1117   NI        0.712637    0.310508    0.268123     0.004307
NI1118   NI        0.716553    0.344691    0.299602     0.004307
NI1119   NI        0.749223    0.309577    0.298230     0.004307
NI1120   NI        0.767845    0.341558    0.258994     0.004307
NI1121   NI        0.800835    0.308474    0.258117     0.004307
NI1122   NI        0.801693    0.338146    0.294253     0.004307
NI1123   NI        0.831808    0.304081    0.293633     0.004307
CU1124   CU        0.830670    0.342488    0.261076     0.006663
NI1125   NI        0.865557    0.341149    0.291687     0.004307
NI1126   NI        0.040512    0.374209    0.263271     0.004307
CU1127   CU        0.039511    0.413363    0.297218     0.006663
NI1128   NI        0.071258    0.376426    0.294572     0.004307
NI1129   NI        0.072255    0.410935    0.260984     0.004307
NI1130   NI        0.102450    0.375169    0.260519     0.004307
CU1131   CU        0.101317    0.411257    0.295173     0.006663
NI1132   NI        0.132691    0.375339    0.296685     0.004307
NI1133   NI        0.135130    0.410503    0.259511     0.004307
NI1134   NI        0.164511    0.377930    0.261693     0.004307
NI1135   NI        0.183430    0.411735    0.301706     0.004307
CU1136   CU        0.216417    0.379390    0.302550     0.006663
CU1137   CU        0.215312    0.413407    0.269094     0.006663
CU1138   CU        0.250945    0.379864    0.270174     0.006663
NI1139   NI        0.246050    0.413060    0.302612     0.004307
CU1140   CU        0.281743    0.379842    0.302358     0.006663
CU1141   CU        0.281272    0.414666    0.269460     0.006663
NI1142   NI        0.317330    0.382614    0.272687     0.004307
CU1143   CU        0.314542    0.413690    0.305071     0.006663
CU1144   CU        0.349733    0.382859    0.306073     0.006663
CU1145   CU        0.349826    0.416475    0.273594     0.006663
CU1146   CU        0.384874    0.382129    0.273560     0.006663
CU1147   CU        0.383755    0.414140    0.304089     0.006663
CU1148   CU        0.419918    0.379873    0.305321     0.006663
CU1149   CU        0.420753    0.414431    0.269537     0.006663
NI1150   NI        0.450515    0.381953    0.271554     0.004307
CU1151   CU        0.452431    0.413550    0.302456     0.006663
CU1152   CU        0.484767    0.381095    0.303699     0.006663
CU1153   CU        0.485485    0.414765    0.271269     0.006663
NI1154   NI        0.519237    0.380122    0.272971     0.004307
CU1155   CU        0.520246    0.415462    0.301817     0.006663
CU1156   CU        0.550259    0.380479    0.303884     0.006663
CU1157   CU        0.553317    0.414577    0.271582     0.006663
CU1158   CU        0.584577    0.383502    0.275328     0.006663
CU1159   CU        0.586657    0.416121    0.305044     0.006663
CU1160   CU        0.620390    0.382297    0.304548     0.006663
CU1161   CU        0.620671    0.415665    0.272719     0.006663
NI1162   NI        0.653712    0.379645    0.272472     0.004307
NI1163   NI        0.654757    0.412803    0.304307     0.004307
NI1164   NI        0.685075    0.380112    0.305187     0.004307
NI1165   NI        0.686844    0.413476    0.271789     0.004307
NI1166   NI        0.715348    0.379906    0.270443     0.004307
NI1167   NI        0.717688    0.413432    0.304627     0.004307
NI1168   NI        0.771460    0.378054    0.296604     0.004307
NI1169   NI        0.769728    0.411029    0.259015     0.004307
NI1170   NI        0.798712    0.373687    0.257975     0.004307
NI1171   NI        0.802278    0.412472    0.295900     0.004307
NI1172   NI        0.833309    0.375960    0.294745     0.004307
NI1173   NI        0.831040    0.407943    0.259749     0.004307
CU1174   CU        0.862297    0.375698    0.261407     0.006663
NI1175   NI        0.863678    0.410743    0.293199     0.004307
NI1176   NI        0.038793    0.445199    0.263290     0.004307
NI1177   NI        0.038854    0.480454    0.296410     0.004307
NI1178   NI        0.070706    0.446961    0.295820     0.004307
NI1179   NI        0.069022    0.481440    0.259904     0.004307
NI1180   NI        0.102912    0.446766    0.260062     0.004307
CU1181   CU        0.101123    0.483021    0.293881     0.006663
NI1182   NI        0.132658    0.447019    0.295352     0.004307
NI1183   NI        0.133359    0.483293    0.261105     0.004307
NI1184   NI        0.164284    0.448450    0.259149     0.004307
NI1185   NI        0.162676    0.480818    0.295388     0.004307
CU1186   CU        0.214726    0.447411    0.302046     0.006663
NI1187   NI        0.215559    0.482369    0.269265     0.004307
NI1188   NI        0.246464    0.447405    0.267832     0.004307
CU1189   CU        0.246618    0.481864    0.303345     0.006663
CU1190   CU        0.280649    0.444901    0.301536     0.006663
CU1191   CU        0.277688    0.478388    0.269532     0.006663
CU1192   CU        0.316624    0.446781    0.272341     0.006663
CU1193   CU        0.313457    0.478670    0.303932     0.006663
CU1194   CU        0.351374    0.448037    0.305333     0.006663
CU1195   CU        0.348717    0.481684    0.272159     0.006663
CU1196   CU        0.383477    0.448973    0.272272     0.006663
CU1197   CU        0.383304    0.481106    0.304967     0.006663
CU1198   CU        0.418450    0.444166    0.303334     0.006663
CU1199   CU        0.417343    0.481702    0.254958     0.006663
NI1200   NI        0.452731    0.450874    0.271069     0.004307
CU1201   CU        0.451849    0.481838    0.305083     0.006663
CU1202   CU        0.485273    0.447614    0.302239     0.006663
CU1203   CU        0.489942    0.476845    0.267880     0.006663
CU1204   CU        0.519998    0.446848    0.271490     0.006663
CU1205   CU        0.521708    0.479047    0.304783     0.006663
CU1206   CU        0.554130    0.447341    0.303454     0.006663
CU1207   CU        0.557186    0.479850    0.269409     0.006663
CU1208   CU        0.588061    0.446938    0.271139     0.006663
CU1209   CU        0.588240    0.480514    0.303223     0.006663
CU1210   CU        0.620656    0.447743    0.305862     0.006663
CU1211   CU        0.621843    0.480961    0.273382     0.006663
NI1212   NI        0.652039    0.447984    0.272247     0.004307
NI1213   NI        0.655103    0.481587    0.305139     0.004307
NI1214   NI        0.687059    0.447779    0.305944     0.004307
CU1215   CU        0.684873    0.479312    0.271135     0.006663
NI1216   NI        0.715481    0.447245    0.272179     0.004307
NI1217   NI        0.722920    0.480595    0.304339     0.004307
NI1218   NI        0.772695    0.447430    0.294244     0.004307
NI1219   NI        0.765348    0.484065    0.258541     0.004307
CU1220   CU        0.798805    0.445003    0.260114     0.006663
NI1221   NI        0.801522    0.482362    0.294441     0.004307
NI1222   NI        0.832616    0.444597    0.296104     0.004307
NI1223   NI        0.830607    0.483590    0.261909     0.004307
NI1224   NI        0.862511    0.442545    0.260756     0.004307
NI1225   NI        0.863213    0.483318    0.296929     0.004307
NI1226   NI        0.039326    0.517318    0.260813     0.004307
NI1227   NI        0.038556    0.554939    0.295590     0.004307
NI1228   NI        0.070425    0.518151    0.294203     0.004307
NI1229   NI        0.069066    0.550584    0.260722     0.004307
CU1230   CU        0.101101    0.517818    0.260605     0.006663
CU1231   CU        0.101719    0.551378    0.295156     0.006663
NI1232   NI        0.133054    0.517886    0.293219     0.004307
NI1233   NI        0.132847    0.551604    0.260478     0.004307
NI1234   NI        0.164703    0.518004    0.264193     0.004307
NI1235   NI        0.164471    0.554262    0.294124     0.004307
NI1236   NI        0.214281    0.515486    0.301994     0.004307
NI1237   NI        0.196117    0.551555    0.262987     0.004307
NI1238   NI        0.248025    0.515231    0.270838     0.004307
NI1239   NI        0.248008    0.550210    0.298545     0.004307
CU1240   CU        0.280441    0.518239    0.301928     0.006663
NI1241   NI        0.281194    0.547843    0.269518     0.004307
NI1242   NI        0.313837    0.513560    0.270916     0.004307
CU1243   CU        0.317240    0.546094    0.302060     0.006663
CU1244   CU        0.348197    0.512826    0.303443     0.006663
CU1245   CU        0.351501    0.545572    0.272315     0.006663
CU1246   CU        0.382723    0.512244    0.272461     0.006663
CU1247   CU        0.382191    0.545749    0.304526     0.006663
CU1248   CU        0.416416    0.516457    0.306048     0.006663
CU1249   CU        0.436764    0.543927    0.257389     0.006663
NI1250   NI        0.455800    0.503524    0.262584     0.004307
CU1251   CU        0.456586    0.532626    0.294266     0.006663
CU1252   CU        0.491872    0.509758    0.301772     0.006663
NI1253   NI        0.484639    0.547489    0.256375     0.004307
CU1254   CU        0.523844    0.511614    0.267065     0.006663
CU1255   CU        0.520134    0.547046    0.303824     0.006663
CU1256   CU        0.552385    0.513559    0.302683     0.006663
CU1257   CU        0.554446    0.545749    0.270375     0.006663
CU1258   CU        0.589924    0.514228    0.273937     0.006663
CU1259   CU        0.587716    0.547288    0.304365     0.006663
CU1260   CU        0.622940    0.515739    0.303254     0.006663
NI1261   NI        0.626124    0.549304    0.271223     0.004307
NI1262   NI        0.657086    0.515716    0.273364     0.004307
CU1263   CU        0.656671    0.546976    0.305140     0.006663
CU1264   CU        0.687822    0.513762    0.305683     0.006663
NI1265   NI        0.690477    0.545279    0.273253     0.004307
NI1266   NI        0.734224    0.520219    0.256811     0.004307
CU1267   CU        0.727243    0.543201    0.303312     0.006663
NI1268   NI        0.766469    0.520181    0.293039     0.004307
CU1269   CU        0.766106    0.550109    0.257844     0.006663
NI1270   NI        0.797883    0.517449    0.261683     0.004307
CU1271   CU        0.798072    0.551469    0.294674     0.006663
NI1272   NI        0.831704    0.517585    0.294908     0.004307
NI1273   NI        0.829951    0.551370    0.260379     0.004307
NI1274   NI        0.864715    0.519417    0.261563     0.004307
NI1275   NI        0.861398    0.551385    0.295010     0.004307
NI1276   NI        0.071317    0.586713    0.295191     0.004307
NI1277   NI        0.072224    0.622473    0.262582     0.004307
NI1278   NI        0.104837    0.584707    0.260763     0.004307
NI1279   NI        0.104838    0.621995    0.295709     0.004307
NI1280   NI        0.133313    0.588765    0.297326     0.004307
NI1281   NI        0.135824    0.621601    0.262709     0.004307
NI1282   NI        0.172504    0.592419    0.273784     0.004307
CU1283   CU        0.170906    0.628001    0.299765     0.006663
NI1284   NI        0.207497    0.580215    0.302937     0.004307
NI1285   NI        0.207594    0.627518    0.262602     0.004307
NI1286   NI        0.235397    0.591863    0.266249     0.004307
NI1287   NI        0.234765    0.622224    0.299120     0.004307
CU1288   CU        0.283598    0.580936    0.302926     0.006663
NI1289   NI        0.274997    0.615920    0.274145     0.004307
NI1290   NI        0.308503    0.588972    0.257203     0.004307
CU1291   CU        0.313786    0.612676    0.303529     0.006663
CU1292   CU        0.350510    0.577214    0.304050     0.006663
CU1293   CU        0.344698    0.623680    0.252077     0.006663
CU1294   CU        0.393727    0.557158    0.263662     0.006663
CU1295   CU        0.391584    0.590282    0.296105     0.006663
NI1296   NI        0.426394    0.563555    0.299000     0.004307
CU1297   CU        0.421338    0.613657    0.265751     0.006663
CU1298   CU        0.456771    0.579680    0.271586     0.006663
CU1299   CU        0.449643    0.612603    0.302869     0.006663
NI1300   NI        0.486739    0.584031    0.306261     0.004307
NI1301   NI        0.485986    0.618282    0.254889     0.004307
NI1302   NI        0.521042    0.585078    0.252164     0.004307
CU1303   CU        0.521859    0.613763    0.307123     0.006663
CU1304   CU        0.554191    0.580319    0.304368     0.006663
NI1305   NI        0.555293    0.619838    0.253956     0.004307
CU1306   CU        0.586724    0.579635    0.271432     0.006663
NI1307   NI        0.587809    0.611828    0.304977     0.004307
NI1308   NI        0.621838    0.580081    0.302115     0.004307
CU1309   CU        0.633644    0.626974    0.265429     0.006663
NI1310   NI        0.660317    0.582060    0.270745     0.004307
NI1311   NI        0.658102    0.612432    0.303597     0.004307
NI1312   NI        0.691730    0.581126    0.304570     0.004307
NI1313   NI        0.695231    0.613538    0.276555     0.004307
NI1314   NI        0.733715    0.589109    0.259994     0.004307
CU1315   CU        0.735708    0.622213    0.296355     0.006663
NI1316   NI        0.764795    0.588248    0.295111     0.004307
NI1317   NI        0.765221    0.620759    0.261118     0.004307
NI1318   NI        0.796978    0.583981    0.261376     0.004307
NI1319   NI        0.798661    0.620910    0.295859     0.004307
NI1320   NI        0.829482    0.584396    0.295785     0.004307
NI1321   NI        0.828825    0.619833    0.260707     0.004307
NI1322   NI        0.073664    0.658429    0.297174     0.004307
NI1323   NI        0.102938    0.655318    0.262997     0.004307
NI1324   NI        0.105673    0.690948    0.296436     0.004307
NI1325   NI        0.136022    0.655923    0.293336     0.004307
NI1326   NI        0.140626    0.688640    0.260808     0.004307
NI1327   NI        0.170734    0.658657    0.262934     0.004307
NI1328   NI        0.170201    0.690442    0.297302     0.004307
NI1329   NI        0.204738    0.657430    0.297427     0.004307
NI1330   NI        0.207569    0.691035    0.263967     0.004307
NI1331   NI        0.246940    0.654310    0.270826     0.004307
NI1332   NI        0.240233    0.691501    0.295186     0.004307
NI1333   NI        0.276652    0.646416    0.308135     0.004307
NI1334   NI        0.274335    0.691911    0.259736     0.004307
NI1335   NI        0.313950    0.662012    0.258017     0.004307
NI1336   NI        0.312628    0.693678    0.291635     0.004307
NI1337   NI        0.346219    0.662728    0.294639     0.004307
NI1338   NI        0.347352    0.693644    0.255443     0.004307
NI1339   NI        0.379783    0.658844    0.254919     0.004307
CU1340   CU        0.376847    0.693001    0.287897     0.006663
CU1341   CU        0.421043    0.648893    0.304490     0.006663
NI1342   NI        0.412084    0.695219    0.257547     0.004307
NI1343   NI        0.451745    0.647946    0.272291     0.004307
CU1344   CU        0.452883    0.682459    0.303744     0.006663
CU1345   CU        0.487320    0.648454    0.303499     0.006663
NI1346   NI        0.485695    0.679434    0.270178     0.004307
NI1347   NI        0.519979    0.644927    0.271440     0.004307
NI1348   NI        0.520493    0.680057    0.303179     0.004307
CU1349   CU        0.553427    0.644830    0.300382     0.006663
NI1350   NI        0.558205    0.696008    0.258801     0.004307
NI1351   NI        0.588689    0.643740    0.272690     0.004307
NI1352   NI        0.586542    0.677687    0.305369     0.004307
NI1353   NI        0.623543    0.644841    0.305686     0.004307
NI1354   NI        0.631095    0.692994    0.261100     0.004307
NI1355   NI        0.665994    0.657847    0.258647     0.004307
CU1356   CU        0.665829    0.691174    0.291473     0.006663
NI1357   NI        0.699055    0.657154    0.295738     0.004307
NI1358   NI        0.698867    0.689873    0.261700     0.004307
NI1359   NI        0.730322    0.654504    0.262976     0.004307
NI1360   NI        0.730107    0.689006    0.294602     0.004307
NI1361   NI        0.766659    0.655132    0.296202     0.004307
NI1362   NI        0.762248    0.686120    0.264386     0.004307
NI1363   NI        0.796045    0.653050    0.261482     0.004307
CU1364   CU        0.798042    0.690018    0.298416     0.006663
NI1365   NI        0.829048    0.655635    0.295115     0.004307
CU1366   CU        0.139416    0.725549    0.298853     0.006663
NI1367   NI        0.174206    0.724361    0.264186     0.004307
NI1368   NI        0.176196    0.758606    0.298789     0.004307
NI1369   NI        0.207535    0.727233    0.295644     0.004307
NI1370   NI        0.208038    0.758752    0.260689     0.004307
NI1371   NI        0.240305    0.724671    0.261094     0.004307
NI1372   NI        0.240063    0.758310    0.295134     0.004307
NI1373   NI        0.275128    0.724062    0.292836     0.004307
NI1374   NI        0.275923    0.758865    0.259209     0.004307
NI1375   NI        0.309329    0.726113    0.258548     0.004307
NI1376   NI        0.307460    0.758189    0.293015     0.004307
CU1377   CU        0.345727    0.728061    0.288777     0.006663
NI1378   NI        0.344748    0.759644    0.258752     0.004307
CU1379   CU        0.380031    0.727271    0.256086     0.006663
NI1380   NI        0.379476    0.763311    0.291101     0.004307
NI1381   NI        0.419187    0.714054    0.302980     0.004307
NI1382   NI        0.413137    0.762073    0.256649     0.004307
CU1383   CU        0.449543    0.728397    0.257730     0.006663
NI1384   NI        0.452256    0.763077    0.291644     0.004307
NI1385   NI        0.485682    0.712787    0.304307     0.004307
CU1386   CU        0.486578    0.760442    0.257741     0.006663
NI1387   NI        0.521783    0.726257    0.254821     0.004307
NI1388   NI        0.523045    0.760622    0.292405     0.004307
NI1389   NI        0.555362    0.710165    0.304023     0.004307
NI1390   NI        0.556548    0.759343    0.258994     0.004307
NI1391   NI        0.593574    0.726230    0.260075     0.004307
NI1392   NI        0.592887    0.759188    0.294923     0.004307
NI1393   NI        0.631159    0.726541    0.293689     0.004307
NI1394   NI        0.629186    0.757321    0.261572     0.004307
CU1395   CU        0.664114    0.724046    0.258954     0.006663
NI1396   NI        0.662228    0.759492    0.295062     0.004307
NI1397   NI        0.695807    0.723211    0.292867     0.004307
NI1398   NI        0.693244    0.755948    0.261677     0.004307
CU1399   CU        0.730265    0.722274    0.262294     0.006663
NI1400   NI        0.732792    0.756305    0.300870     0.004307
NI1401   NI        0.761659    0.723611    0.297098     0.004307
NI1402   NI        0.206676    0.792048    0.298729     0.004307
CU1403   CU        0.241396    0.788954    0.260672     0.006663
NI1404   NI        0.240515    0.823765    0.293075     0.004307
NI1405   NI        0.276657    0.791009    0.291842     0.004307
NI1406   NI        0.276207    0.856182    0.293729     0.004307
NI1407   NI        0.309342    0.790210    0.260884     0.004307
NI1408   NI        0.309697    0.826179    0.295135     0.004307
NI1409   NI        0.344490    0.795198    0.293724     0.004307
NI1410   NI        0.347949    0.824852    0.258582     0.004307
NI1411   NI        0.381873    0.794850    0.257484     0.004307
NI1412   NI        0.383142    0.825428    0.291948     0.004307
CU1413   CU        0.418629    0.793351    0.292657     0.006663
NI1414   NI        0.417733    0.825421    0.260126     0.004307
CU1415   CU        0.452318    0.793251    0.258055     0.006663
NI1416   NI        0.452553    0.825467    0.294407     0.004307
NI1417   NI        0.487591    0.792663    0.291478     0.004307
NI1418   NI        0.488037    0.825731    0.258925     0.004307
NI1419   NI        0.522032    0.792633    0.259508     0.004307
CU1420   CU        0.522949    0.824536    0.292408     0.006663
NI1421   NI        0.556959    0.792145    0.291362     0.004307
NI1422   NI        0.554133    0.824069    0.257752     0.004307
NI1423   NI        0.592305    0.792348    0.258700     0.004307
CU1424   CU        0.594693    0.824043    0.296523     0.006663
NI1425   NI        0.630290    0.791934    0.295621     0.004307
CU1426   CU        0.628063    0.819495    0.261216     0.006663
NI1427   NI        0.661631    0.789207    0.261680     0.004307
NI1428   NI        0.664810    0.821071    0.292876     0.004307
NI1429   NI        0.695103    0.788817    0.296921     0.004307
NI1430   NI        0.345892    0.856001    0.293159     0.004307
NI1431   NI        0.382072    0.857156    0.260905     0.004307
NI1432   NI        0.418493    0.856173    0.296099     0.004307
NI1433   NI        0.450475    0.855174    0.261471     0.004307
CU1434   CU        0.487583    0.856359    0.293830     0.006663
CU1435   CU        0.525141    0.856638    0.262455     0.006663
NI1436   NI        0.557907    0.854756    0.293805     0.004307
NI1437   NI        0.380002    0.004731    0.365455     0.004307
NI1438   NI        0.415312    0.003807    0.333192     0.004307
CU1439   CU        0.451398    0.004973    0.363044     0.006663
NI1440   NI        0.485886    0.004160    0.329878     0.004307
NI1441   NI        0.523617    0.002740    0.365756     0.004307
NI1442   NI        0.206923    0.070724    0.328507     0.004307
NI1443   NI        0.239777    0.068713    0.361666     0.004307
NI1444   NI        0.274750    0.036695    0.364349     0.004307
CU1445   CU        0.276022    0.068153    0.329128     0.006663
NI1446   NI        0.309625    0.034175    0.329022     0.004307
NI1447   NI        0.309810    0.066339    0.365802     0.004307
NI1448   NI        0.347042    0.036855    0.363404     0.004307
CU1449   CU        0.346165    0.067018    0.328985     0.006663
NI1450   NI        0.383715    0.035772    0.331839     0.004307
NI1451   NI        0.380948    0.068028    0.365660     0.004307
CU1452   CU        0.415889    0.033267    0.366372     0.006663
CU1453   CU        0.418217    0.067642    0.327283     0.006663
NI1454   NI        0.451916    0.033481    0.329337     0.004307
CU1455   CU        0.451445    0.063548    0.363416     0.006663
NI1456   NI        0.489169    0.035795    0.362918     0.004307
CU1457   CU        0.488119    0.067588    0.328433     0.006663
CU1458   CU        0.522176    0.035599    0.330702     0.006663
NI1459   NI        0.524580    0.065085    0.366389     0.004307
NI1460   NI        0.557676    0.032820    0.364268     0.004307
NI1461   NI        0.557760    0.063289    0.330002     0.004307
CU1462   CU        0.595616    0.035159    0.329639     0.006663
NI1463   NI        0.592452    0.067664    0.362346     0.004307
NI1464   NI        0.629389    0.036083    0.364623     0.004307
CU1465   CU        0.625396    0.067840    0.329631     0.006663
NI1466   NI        0.662428    0.068855    0.366882     0.004307
NI1467   NI        0.663417    0.036838    0.330474     0.004307
NI1468   NI        0.106185    0.132923    0.360983     0.004307
NI1469   NI        0.139190    0.102723    0.361450     0.004307
NI1470   NI        0.142832    0.136790    0.332962     0.004307
NI1471   NI        0.176357    0.103441    0.327276     0.004307
NI1472   NI        0.173154    0.133355    0.367093     0.004307
CU1473   CU        0.207136    0.101140    0.362401     0.006663
NI1474   NI        0.211470    0.133285    0.328182     0.004307
NI1475   NI        0.241313    0.100389    0.328399     0.004307
NI1476   NI        0.243033    0.129797    0.361704     0.004307
NI1477   NI        0.274371    0.099647    0.362714     0.004307
NI1478   NI        0.276976    0.132136    0.325719     0.004307
NI1479   NI        0.311357    0.098093    0.329090     0.004307
NI1480   NI        0.308115    0.127577    0.364717     0.004307
NI1481   NI        0.343479    0.096868    0.363052     0.004307
NI1482   NI        0.347612    0.129151    0.327465     0.004307
CU1483   CU        0.381264    0.097391    0.328368     0.006663
NI1484   NI        0.383007    0.123979    0.364379     0.004307
CU1485   CU        0.417874    0.095109    0.364755     0.006663
CU1486   CU        0.414926    0.129615    0.328779     0.006663
NI1487   NI        0.454819    0.095498    0.330986     0.004307
NI1488   NI        0.454817    0.125593    0.367348     0.004307
NI1489   NI        0.489184    0.093008    0.368107     0.004307
NI1490   NI        0.490919    0.123460    0.334478     0.004307
NI1491   NI        0.524932    0.092196    0.331612     0.004307
CU1492   CU        0.525338    0.127247    0.363116     0.006663
CU1493   CU        0.561117    0.097564    0.363488     0.006663
CU1494   CU        0.557955    0.130717    0.329349     0.006663
NI1495   NI        0.594799    0.100208    0.329540     0.004307
NI1496   NI        0.592970    0.130134    0.366622     0.004307
NI1497   NI        0.627865    0.099008    0.364341     0.004307
NI1498   NI        0.627494    0.132402    0.328723     0.004307
NI1499   NI        0.660770    0.101145    0.331773     0.004307
CU1500   CU        0.662322    0.131519    0.364686     0.006663
NI1501   NI        0.696176    0.102009    0.364015     0.004307
CU1502   CU        0.694340    0.134609    0.328960     0.006663
NI1503   NI        0.728184    0.103452    0.332435     0.004307
NI1504   NI        0.732714    0.134656    0.365763     0.004307
CU1505   CU        0.729321    0.070603    0.362901     0.006663
NI1506   NI        0.760108    0.135216    0.328802     0.004307
NI1507   NI        0.830638    0.131605    0.401573     0.004307
NI1508   NI        0.074098    0.204833    0.329527     0.004307
NI1509   NI        0.110406    0.170004    0.332223     0.004307
NI1510   NI        0.105639    0.202484    0.364276     0.004307
NI1511   NI        0.141836    0.169091    0.365818     0.004307
CU1512   CU        0.138988    0.202035    0.328565     0.006663
CU1513   CU        0.174222    0.168017    0.326132     0.006663
NI1514   NI        0.184435    0.211289    0.393957     0.004307
NI1515   NI        0.213114    0.172935    0.394403     0.004307
NI1516   NI        0.206573    0.198345    0.323662     0.004307
NI1517   NI        0.244256    0.164911    0.325430     0.004307
NI1518   NI        0.257302    0.219231    0.375894     0.004307
NI1519   NI        0.275409    0.161505    0.359951     0.004307
NI1520   NI        0.287851    0.225154    0.342362     0.004307
NI1521   NI        0.319473    0.190966    0.339788     0.004307
NI1522   NI        0.319508    0.218760    0.374723     0.004307
NI1523   NI        0.354272    0.185008    0.371839     0.004307
CU1524   CU        0.353282    0.219827    0.340943     0.006663
NI1525   NI        0.385014    0.189038    0.335686     0.004307
CU1526   CU        0.387500    0.215896    0.371097     0.006663
NI1527   NI        0.417276    0.182409    0.368645     0.004307
CU1528   CU        0.419812    0.214195    0.336363     0.006663
NI1529   NI        0.452713    0.180952    0.335397     0.004307
NI1530   NI        0.452297    0.214957    0.369375     0.004307
NI1531   NI        0.486022    0.180367    0.368015     0.004307
NI1532   NI        0.486402    0.213795    0.337804     0.004307
NI1533   NI        0.524569    0.179821    0.338921     0.004307
CU1534   CU        0.518997    0.210257    0.370367     0.006663
NI1535   NI        0.556974    0.157375    0.366192     0.004307
CU1536   CU        0.559403    0.212194    0.336255     0.006663
NI1537   NI        0.591580    0.161288    0.328907     0.004307
NI1538   NI        0.590287    0.191777    0.363554     0.004307
NI1539   NI        0.627657    0.162759    0.365286     0.004307
NI1540   NI        0.622198    0.216272    0.333521     0.004307
NI1541   NI        0.661501    0.165952    0.328864     0.004307
NI1542   NI        0.663827    0.193301    0.367233     0.004307
NI1543   NI        0.695504    0.164363    0.363583     0.004307
NI1544   NI        0.693449    0.197085    0.327790     0.004307
NI1545   NI        0.726983    0.168237    0.331175     0.004307
CU1546   CU        0.732333    0.198793    0.367048     0.006663
CU1547   CU        0.763519    0.168354    0.365332     0.006663
NI1548   NI        0.759224    0.199920    0.332727     0.004307
NI1549   NI        0.792031    0.167592    0.329677     0.004307
NI1550   NI        0.799898    0.198984    0.365243     0.004307
NI1551   NI        0.828804    0.200574    0.329500     0.004307
NI1552   NI        0.041642    0.268386    0.363804     0.004307
NI1553   NI        0.073667    0.237138    0.363232     0.004307
NI1554   NI        0.073310    0.271793    0.327952     0.004307
CU1555   CU        0.105898    0.237434    0.328535     0.006663
CU1556   CU        0.104691    0.268582    0.361583     0.006663
CU1557   CU        0.137710    0.236146    0.362676     0.006663
NI1558   NI        0.137373    0.269387    0.328138     0.004307
NI1559   NI        0.169578    0.236678    0.324647     0.004307
CU1560   CU        0.167041    0.273840    0.362237     0.006663
NI1561   NI        0.221412    0.247426    0.378380     0.004307
NI1562   NI        0.199819    0.274814    0.327202     0.004307
NI1563   NI        0.248917    0.250242    0.340822     0.004307
NI1564   NI        0.252886    0.280891    0.374878     0.004307
CU1565   CU        0.286631    0.250410    0.376471     0.006663
NI1566   NI        0.284352    0.279504    0.338010     0.004307
NI1567   NI        0.321555    0.252132    0.342883     0.004307
CU1568   CU        0.318911    0.282234    0.373308     0.006663
CU1569   CU        0.352684    0.249365    0.374341     0.006663
CU1570   CU        0.353853    0.282287    0.337944     0.006663
CU1571   CU        0.387264    0.248837    0.337767     0.006663
CU1572   CU        0.386073    0.279651    0.373163     0.006663
CU1573   CU        0.419344    0.246197    0.371112     0.006663
CU1574   CU        0.418758    0.280308    0.339027     0.006663
CU1575   CU        0.454870    0.246599    0.336923     0.006663
CU1576   CU        0.452303    0.278494    0.371631     0.006663
CU1577   CU        0.487433    0.245328    0.370059     0.006663
NI1578   NI        0.487505    0.277497    0.336585     0.004307
CU1579   CU        0.523031    0.241767    0.335207     0.006663
CU1580   CU        0.518620    0.279359    0.368248     0.006663
CU1581   CU        0.551091    0.248225    0.369961     0.006663
CU1582   CU        0.553353    0.278849    0.337220     0.006663
NI1583   NI        0.588512    0.247608    0.336692     0.004307
CU1584   CU        0.584728    0.279470    0.371222     0.006663
NI1585   NI        0.619967    0.246431    0.371534     0.004307
CU1586   CU        0.620450    0.280946    0.337179     0.006663
NI1587   NI        0.652237    0.249228    0.338722     0.004307
NI1588   NI        0.652689    0.282304    0.373373     0.004307
NI1589   NI        0.686242    0.250944    0.370277     0.004307
NI1590   NI        0.682567    0.281249    0.334886     0.004307
NI1591   NI        0.712569    0.248023    0.333476     0.004307
NI1592   NI        0.724767    0.278480    0.365730     0.004307
NI1593   NI        0.750881    0.238207    0.355567     0.004307
NI1594   NI        0.749344    0.273865    0.330095     0.004307
CU1595   CU        0.780146    0.237808    0.317838     0.006663
NI1596   NI        0.799573    0.272549    0.365745     0.004307
NI1597   NI        0.830367    0.237957    0.363436     0.004307
CU1598   CU        0.830294    0.271027    0.330696     0.006663
NI1599   NI        0.863364    0.270191    0.365867     0.004307
NI1600   NI        0.040892    0.304503    0.327437     0.004307
NI1601   NI        0.043675    0.340210    0.359989     0.004307
CU1602   CU        0.070597    0.302286    0.360198     0.006663
NI1603   NI        0.071469    0.338567    0.327214     0.004307
NI1604   NI        0.103515    0.304860    0.324978     0.004307
NI1605   NI        0.097696    0.338557    0.364592     0.004307
NI1606   NI        0.130269    0.307095    0.364193     0.004307
NI1607   NI        0.135017    0.339319    0.326738     0.004307
CU1608   CU        0.166139    0.303944    0.328204     0.006663
CU1609   CU        0.185545    0.343888    0.367045     0.006663
NI1610   NI        0.218627    0.312425    0.371069     0.004307
NI1611   NI        0.218229    0.344885    0.336786     0.004307
NI1612   NI        0.250284    0.312227    0.335597     0.004307
NI1613   NI        0.247332    0.345039    0.370186     0.004307
NI1614   NI        0.283940    0.315882    0.373549     0.004307
CU1615   CU        0.281843    0.345381    0.338822     0.006663
CU1616   CU        0.318859    0.313666    0.338924     0.006663
NI1617   NI        0.316873    0.348476    0.372691     0.004307
CU1618   CU        0.352246    0.312568    0.373596     0.006663
CU1619   CU        0.352304    0.348104    0.337793     0.006663
CU1620   CU        0.385277    0.312836    0.338684     0.006663
CU1621   CU        0.385554    0.345486    0.370113     0.006663
CU1622   CU        0.418416    0.313045    0.368825     0.006663
CU1623   CU        0.419508    0.345121    0.335718     0.006663
CU1624   CU        0.454103    0.312144    0.336275     0.006663
NI1625   NI        0.454112    0.343946    0.368247     0.004307
CU1626   CU        0.487461    0.312149    0.370942     0.006663
CU1627   CU        0.487069    0.347617    0.335871     0.006663
CU1628   CU        0.520408    0.311421    0.336732     0.006663
CU1629   CU        0.518544    0.344173    0.370847     0.006663
CU1630   CU        0.551185    0.311922    0.371619     0.006663
CU1631   CU        0.551714    0.344927    0.337039     0.006663
CU1632   CU        0.584955    0.310855    0.337830     0.006663
CU1633   CU        0.585766    0.346684    0.366794     0.006663
CU1634   CU        0.618694    0.311964    0.370311     0.006663
CU1635   CU        0.618704    0.349123    0.336383     0.006663
CU1636   CU        0.652971    0.315644    0.338278     0.006663
CU1637   CU        0.652303    0.347925    0.370503     0.006663
NI1638   NI        0.686952    0.312803    0.369901     0.004307
CU1639   CU        0.688132    0.345497    0.337159     0.006663
NI1640   NI        0.717877    0.309898    0.331156     0.004307
CU1641   CU        0.717291    0.347336    0.372183     0.006663
CU1642   CU        0.771159    0.306093    0.363538     0.006663
NI1643   NI        0.772655    0.342421    0.328580     0.004307
NI1644   NI        0.805969    0.308985    0.328302     0.004307
NI1645   NI        0.804234    0.339485    0.363610     0.004307
NI1646   NI        0.833845    0.303958    0.365049     0.004307
CU1647   CU        0.836134    0.343517    0.329958     0.006663
CU1648   CU        0.862106    0.304950    0.328594     0.006663
NI1649   NI        0.864123    0.343441    0.365271     0.004307
NI1650   NI        0.008633    0.375122    0.363486     0.004307
NI1651   NI        0.004164    0.409110    0.331703     0.004307
NI1652   NI        0.040213    0.376469    0.328775     0.004307
CU1653   CU        0.036587    0.413097    0.364258     0.006663
NI1654   NI        0.069044    0.377362    0.361933     0.004307
NI1655   NI        0.069812    0.411535    0.329695     0.004307
CU1656   CU        0.101857    0.372800    0.327842     0.006663
NI1657   NI        0.100542    0.408999    0.363841     0.004307
NI1658   NI        0.130724    0.372931    0.366754     0.004307
NI1659   NI        0.130574    0.409383    0.331473     0.004307
NI1660   NI        0.183899    0.378899    0.336080     0.004307
NI1661   NI        0.184079    0.412683    0.367102     0.004307
CU1662   CU        0.213379    0.378389    0.367882     0.006663
NI1663   NI        0.214692    0.412878    0.335961     0.004307
NI1664   NI        0.248575    0.380158    0.338077     0.004307
CU1665   CU        0.245217    0.415175    0.368177     0.006663
CU1666   CU        0.280310    0.379112    0.368598     0.006663
CU1667   CU        0.280921    0.415069    0.337884     0.006663
CU1668   CU        0.315314    0.379588    0.336344     0.006663
CU1669   CU        0.314167    0.412334    0.368714     0.006663
CU1670   CU        0.350597    0.379895    0.370646     0.006663
CU1671   CU        0.348999    0.414071    0.338895     0.006663
CU1672   CU        0.383851    0.382090    0.338240     0.006663
CU1673   CU        0.383054    0.413564    0.368935     0.006663
CU1674   CU        0.417449    0.379459    0.369584     0.006663
CU1675   CU        0.418398    0.415903    0.338133     0.006663
CU1676   CU        0.452727    0.378523    0.337469     0.006663
CU1677   CU        0.453079    0.411704    0.370580     0.006663
CU1678   CU        0.487679    0.378352    0.370353     0.006663
CU1679   CU        0.486467    0.414130    0.336400     0.006663
CU1680   CU        0.519798    0.379371    0.336721     0.006663
CU1681   CU        0.518033    0.411742    0.369701     0.006663
CU1682   CU        0.552659    0.379500    0.368976     0.006663
CU1683   CU        0.553358    0.412688    0.335489     0.006663
CU1684   CU        0.586916    0.382172    0.336917     0.006663
CU1685   CU        0.585685    0.413582    0.368608     0.006663
CU1686   CU        0.619683    0.381293    0.372889     0.006663
CU1687   CU        0.621769    0.417613    0.337120     0.006663
CU1688   CU        0.651255    0.381551    0.336586     0.006663
NI1689   NI        0.654425    0.414983    0.372004     0.004307
CU1690   CU        0.684786    0.378817    0.369899     0.006663
NI1691   NI        0.685353    0.413735    0.338189     0.004307
NI1692   NI        0.719918    0.377331    0.335681     0.004307
NI1693   NI        0.719774    0.411796    0.368028     0.004307
NI1694   NI        0.749844    0.377798    0.373822     0.004307
NI1695   NI        0.772177    0.412263    0.330195     0.004307
NI1696   NI        0.803036    0.376885    0.327158     0.004307
NI1697   NI        0.804068    0.411853    0.364356     0.004307
NI1698   NI        0.833645    0.376414    0.364366     0.004307
CU1699   CU        0.834086    0.411211    0.327774     0.006663
NI1700   NI        0.866474    0.376513    0.330781     0.004307
NI1701   NI        0.864945    0.410959    0.363476     0.004307
NI1702   NI        0.897304    0.376450    0.364895     0.004307
NI1703   NI        0.896614    0.412177    0.331265     0.004307
NI1704   NI        0.006204    0.448609    0.363292     0.004307
CU1705   CU        0.007098    0.482768    0.330125     0.006663
NI1706   NI        0.037234    0.445762    0.329019     0.004307
CU1707   CU        0.038763    0.482617    0.363019     0.006663
CU1708   CU        0.068752    0.446277    0.364084     0.006663
NI1709   NI        0.071842    0.481784    0.329970     0.004307
NI1710   NI        0.100551    0.444644    0.330078     0.004307
CU1711   CU        0.099856    0.480059    0.367194     0.006663
NI1712   NI        0.129659    0.447436    0.365117     0.004307
NI1713   NI        0.128460    0.481308    0.329655     0.004307
NI1714   NI        0.182873    0.444635    0.335731     0.004307
NI1715   NI        0.182593    0.481692    0.368787     0.004307
CU1716   CU        0.215490    0.447843    0.366915     0.006663
NI1717   NI        0.211098    0.483037    0.333621     0.004307
NI1718   NI        0.248983    0.447465    0.334511     0.004307
CU1719   CU        0.247022    0.482953    0.366150     0.006663
CU1720   CU        0.281151    0.450745    0.369658     0.006663
CU1721   CU        0.279750    0.484473    0.335731     0.006663
NI1722   NI        0.312212    0.448051    0.336311     0.004307
CU1723   CU        0.316611    0.482683    0.369646     0.006663
CU1724   CU        0.349173    0.448848    0.369036     0.006663
CU1725   CU        0.348921    0.480774    0.336674     0.006663
CU1726   CU        0.384824    0.447008    0.334983     0.006663
CU1727   CU        0.382337    0.481441    0.369951     0.006663
CU1728   CU        0.417503    0.448075    0.368215     0.006663
CU1729   CU        0.417163    0.478890    0.334246     0.006663
CU1730   CU        0.453515    0.446995    0.334982     0.006663
CU1731   CU        0.450612    0.480337    0.367681     0.006663
CU1732   CU        0.485755    0.447364    0.368945     0.006663
CU1733   CU        0.486266    0.479034    0.336006     0.006663
CU1734   CU        0.518521    0.447155    0.336724     0.006663
CU1735   CU        0.520635    0.480524    0.367739     0.006663
CU1736   CU        0.550619    0.447276    0.369790     0.006663
CU1737   CU        0.554736    0.480155    0.334032     0.006663
CU1738   CU        0.587582    0.446530    0.337705     0.006663
CU1739   CU        0.588436    0.482367    0.368462     0.006663
CU1740   CU        0.620593    0.448294    0.370757     0.006663
CU1741   CU        0.622885    0.481051    0.338167     0.006663
CU1742   CU        0.653446    0.447987    0.335560     0.006663
CU1743   CU        0.653815    0.478573    0.370359     0.006663
NI1744   NI        0.686372    0.446525    0.371746     0.004307
CU1745   CU        0.687628    0.481491    0.336907     0.006663
NI1746   NI        0.717427    0.446361    0.339503     0.004307
NI1747   NI        0.718710    0.479595    0.372781     0.004307
NI1748   NI        0.773585    0.442555    0.364737     0.004307
NI1749   NI        0.752873    0.480629    0.342329     0.004307
NI1750   NI        0.804236    0.443381    0.331209     0.004307
NI1751   NI        0.800854    0.479127    0.362607     0.004307
NI1752   NI        0.835837    0.448343    0.364590     0.004307
NI1753   NI        0.832659    0.482411    0.330050     0.004307
NI1754   NI        0.864619    0.446642    0.329062     0.004307
CU1755   CU        0.865724    0.482713    0.362358     0.006663
NI1756   NI        0.894976    0.445360    0.361200     0.004307
NI1757   NI        0.895534    0.482975    0.329990     0.004307
NI1758   NI        0.009249    0.518885    0.363592     0.004307
NI1759   NI        0.039315    0.515703    0.328378     0.004307
NI1760   NI        0.039308    0.553329    0.363331     0.004307
NI1761   NI        0.070274    0.518318    0.363998     0.004307
CU1762   CU        0.068394    0.552722    0.327764     0.006663
CU1763   CU        0.102976    0.520845    0.330269     0.006663
NI1764   NI        0.099699    0.553559    0.362157     0.004307
NI1765   NI        0.128749    0.514480    0.366842     0.004307
NI1766   NI        0.131952    0.554647    0.326547     0.004307
CU1767   CU        0.182202    0.516632    0.333904     0.006663
NI1768   NI        0.180518    0.548807    0.371994     0.004307
CU1769   CU        0.215781    0.515201    0.367678     0.006663
CU1770   CU        0.215506    0.549043    0.338229     0.006663
CU1771   CU        0.247092    0.516043    0.335386     0.006663
NI1772   NI        0.247651    0.547645    0.369822     0.004307
CU1773   CU        0.280103    0.516223    0.369073     0.006663
CU1774   CU        0.280589    0.549432    0.335737     0.006663
CU1775   CU        0.316805    0.513059    0.334981     0.006663
CU1776   CU        0.317289    0.548146    0.368286     0.006663
CU1777   CU        0.350402    0.514087    0.369183     0.006663
CU1778   CU        0.352189    0.546143    0.337225     0.006663
CU1779   CU        0.383420    0.513932    0.336514     0.006663
CU1780   CU        0.384365    0.547108    0.370262     0.006663
CU1781   CU        0.417463    0.513316    0.368512     0.006663
CU1782   CU        0.415822    0.547246    0.337209     0.006663
CU1783   CU        0.452938    0.514300    0.333939     0.006663
CU1784   CU        0.453851    0.546278    0.366500     0.006663
CU1785   CU        0.485972    0.511725    0.366203     0.006663
CU1786   CU        0.487466    0.547427    0.332706     0.006663
CU1787   CU        0.521069    0.514204    0.337034     0.006663
CU1788   CU        0.521084    0.547206    0.368614     0.006663
CU1789   CU        0.552029    0.512461    0.367893     0.006663
CU1790   CU        0.553517    0.545079    0.336251     0.006663
NI1791   NI        0.588749    0.514034    0.334304     0.004307
NI1792   NI        0.587479    0.546892    0.368430     0.004307
CU1793   CU        0.621944    0.514150    0.371311     0.006663
CU1794   CU        0.623021    0.546301    0.337852     0.006663
CU1795   CU        0.654534    0.515096    0.339530     0.006663
CU1796   CU        0.655356    0.548314    0.370735     0.006663
CU1797   CU        0.688576    0.513315    0.371668     0.006663
CU1798   CU        0.689922    0.546712    0.335803     0.006663
NI1799   NI        0.719792    0.510272    0.336646     0.004307
CU1800   CU        0.718738    0.545388    0.374190     0.006663
NI1801   NI        0.776048    0.517671    0.361666     0.004307
NI1802   NI        0.767899    0.551897    0.328451     0.004307
NI1803   NI        0.799231    0.519182    0.325572     0.004307
CU1804   CU        0.800192    0.554425    0.365620     0.006663
NI1805   NI        0.829265    0.515338    0.360414     0.004307
NI1806   NI        0.830887    0.551705    0.327441     0.004307
NI1807   NI        0.862208    0.517161    0.330131     0.004307
NI1808   NI        0.862540    0.552060    0.362866     0.004307
CU1809   CU        0.894939    0.519830    0.363043     0.006663
NI1810   NI        0.040169    0.589076    0.331416     0.004307
NI1811   NI        0.042293    0.622530    0.365508     0.004307
NI1812   NI        0.071172    0.588923    0.365033     0.004307
CU1813   CU        0.070950    0.623277    0.331054     0.006663
NI1814   NI        0.102049    0.588115    0.330102     0.004307
NI1815   NI        0.103721    0.624004    0.364053     0.004307
NI1816   NI        0.135510    0.588958    0.360563     0.004307
NI1817   NI        0.134334    0.622249    0.330505     0.004307
NI1818   NI        0.166977    0.588438    0.328810     0.004307
CU1819   CU        0.167337    0.623838    0.362945     0.006663
CU1820   CU        0.214738    0.580716    0.371560     0.006663
NI1821   NI        0.200924    0.617846    0.330757     0.004307
NI1822   NI        0.249014    0.580414    0.336840     0.004307
CU1823   CU        0.252244    0.611059    0.373780     0.006663
CU1824   CU        0.284750    0.581587    0.368971     0.006663
NI1825   NI        0.282379    0.614139    0.337138     0.004307
CU1826   CU        0.317864    0.578953    0.336696     0.006663
NI1827   NI        0.318299    0.613803    0.369917     0.004307
CU1828   CU        0.351206    0.578649    0.369815     0.006663
NI1829   NI        0.349591    0.612281    0.334865     0.004307
CU1830   CU        0.383489    0.578340    0.338750     0.006663
CU1831   CU        0.382166    0.612192    0.370103     0.006663
CU1832   CU        0.417747    0.581060    0.370187     0.006663
CU1833   CU        0.417176    0.614414    0.334125     0.006663
CU1834   CU        0.453059    0.577944    0.335153     0.006663
CU1835   CU        0.450956    0.613412    0.367246     0.006663
CU1836   CU        0.487150    0.581052    0.367058     0.006663
CU1837   CU        0.487562    0.614782    0.337017     0.006663
NI1838   NI        0.521387    0.578821    0.336981     0.004307
CU1839   CU        0.521882    0.614518    0.367612     0.006663
CU1840   CU        0.554401    0.578805    0.368255     0.006663
CU1841   CU        0.554574    0.614137    0.337020     0.006663
CU1842   CU        0.589612    0.578611    0.335243     0.006663
CU1843   CU        0.586144    0.612033    0.369408     0.006663
CU1844   CU        0.621545    0.580919    0.368535     0.006663
CU1845   CU        0.622282    0.613159    0.337040     0.006663
NI1846   NI        0.656213    0.580126    0.338547     0.004307
CU1847   CU        0.654858    0.615052    0.372371     0.006663
NI1848   NI        0.687009    0.579394    0.372790     0.004307
NI1849   NI        0.698763    0.622674    0.323748     0.004307
NI1850   NI        0.734778    0.589707    0.328711     0.004307
NI1851   NI        0.733455    0.623646    0.361553     0.004307
NI1852   NI        0.767809    0.587086    0.361496     0.004307
NI1853   NI        0.766681    0.622577    0.330059     0.004307
NI1854   NI        0.798682    0.586087    0.328475     0.004307
NI1855   NI        0.799285    0.623259    0.363211     0.004307
NI1856   NI        0.829799    0.587758    0.363432     0.004307
NI1857   NI        0.830565    0.620441    0.329455     0.004307
NI1858   NI        0.862598    0.584919    0.329071     0.004307
NI1859   NI        0.891728    0.585838    0.362426     0.004307
CU1860   CU        0.073808    0.656262    0.362372     0.006663
NI1861   NI        0.075454    0.691585    0.330997     0.004307
NI1862   NI        0.104737    0.656435    0.329972     0.004307
NI1863   NI        0.107158    0.692994    0.364617     0.004307
NI1864   NI        0.138020    0.659060    0.364507     0.004307
CU1865   CU        0.137616    0.690084    0.330577     0.006663
NI1866   NI        0.170448    0.659326    0.331232     0.004307
NI1867   NI        0.171050    0.693219    0.363619     0.004307
NI1868   NI        0.202480    0.662023    0.362917     0.004307
NI1869   NI        0.205273    0.692703    0.327109     0.004307
NI1870   NI        0.240528    0.663120    0.330495     0.004307
NI1871   NI        0.239141    0.695657    0.362567     0.004307
NI1872   NI        0.284440    0.641901    0.370854     0.004307
NI1873   NI        0.274997    0.694765    0.328471     0.004307
CU1874   CU        0.313904    0.647059    0.332155     0.006663
NI1875   NI        0.311620    0.696654    0.360937     0.004307
CU1876   CU        0.351708    0.646481    0.369589     0.006663
NI1877   NI        0.351479    0.678705    0.339314     0.004307
CU1878   CU        0.386713    0.647769    0.337585     0.006663
CU1879   CU        0.384301    0.681173    0.370729     0.006663
NI1880   NI        0.419756    0.647114    0.367940     0.004307
CU1881   CU        0.420073    0.680440    0.335666     0.006663
CU1882   CU        0.452208    0.647487    0.336979     0.006663
CU1883   CU        0.450778    0.683202    0.370380     0.006663
NI1884   NI        0.484564    0.647137    0.369340     0.004307
NI1885   NI        0.486360    0.680116    0.334943     0.004307
CU1886   CU        0.518877    0.649738    0.337146     0.006663
CU1887   CU        0.519308    0.680165    0.371036     0.006663
CU1888   CU        0.552824    0.646624    0.368874     0.006663
CU1889   CU        0.552882    0.679494    0.335338     0.006663
NI1890   NI        0.586210    0.645660    0.337854     0.004307
NI1891   NI        0.587286    0.679558    0.368747     0.004307
NI1892   NI        0.620419    0.645474    0.370345     0.004307
NI1893   NI        0.619086    0.678258    0.338483     0.004307
NI1894   NI        0.654091    0.647418    0.337129     0.004307
CU1895   CU        0.654894    0.676848    0.370746     0.006663
NI1896   NI        0.689724    0.644116    0.370358     0.004307
CU1897   CU        0.699264    0.691622    0.327110     0.006663
NI1898   NI        0.734051    0.654965    0.327042     0.004307
CU1899   CU        0.732729    0.694516    0.366851     0.006663
CU1900   CU        0.767388    0.655533    0.363443     0.006663
CU1901   CU        0.765086    0.688291    0.333037     0.006663
NI1902   NI        0.799170    0.656063    0.328792     0.004307
CU1903   CU        0.799337    0.690725    0.364687     0.006663
CU1904   CU        0.831432    0.656305    0.364685     0.006663
NI1905   NI        0.832063    0.687032    0.328718     0.004307
NI1906   NI        0.109117    0.723783    0.330536     0.004307
NI1907   NI        0.111068    0.758853    0.363462     0.004307
CU1908   CU        0.139571    0.723227    0.363935     0.006663
CU1909   CU        0.141859    0.758999    0.330370     0.006663
CU1910   CU        0.172908    0.726533    0.330852     0.006663
NI1911   NI        0.171994    0.757778    0.364117     0.004307
NI1912   NI        0.205411    0.727922    0.365125     0.004307
NI1913   NI        0.208433    0.757567    0.329933     0.004307
NI1914   NI        0.241867    0.726614    0.327852     0.004307
NI1915   NI        0.239668    0.757531    0.363707     0.004307
CU1916   CU        0.272564    0.725111    0.363402     0.006663
CU1917   CU        0.275259    0.761288    0.326888     0.006663
NI1918   NI        0.308986    0.728017    0.327762     0.004307
NI1919   NI        0.317692    0.743434    0.369086     0.004307
NI1920   NI        0.353481    0.713127    0.371253     0.004307
NI1921   NI        0.351986    0.748449    0.337856     0.004307
NI1922   NI        0.386196    0.712822    0.337028     0.004307
NI1923   NI        0.384462    0.749552    0.366999     0.004307
NI1924   NI        0.417340    0.715442    0.370524     0.004307
CU1925   CU        0.419212    0.748780    0.336836     0.006663
NI1926   NI        0.450387    0.715292    0.336848     0.004307
CU1927   CU        0.453334    0.749148    0.370334     0.006663
NI1928   NI        0.484575    0.712592    0.369760     0.004307
NI1929   NI        0.482792    0.744082    0.336243     0.004307
NI1930   NI        0.518846    0.712964    0.334741     0.004307
NI1931   NI        0.518077    0.763479    0.364026     0.004307
NI1932   NI        0.555877    0.710521    0.370802     0.004307
NI1933   NI        0.554623    0.766283    0.327738     0.004307
NI1934   NI        0.586852    0.710892    0.336466     0.004307
NI1935   NI        0.589497    0.742378    0.370021     0.004307
NI1936   NI        0.622527    0.710853    0.370121     0.004307
NI1937   NI        0.631948    0.759443    0.327696     0.004307
NI1938   NI        0.665467    0.726089    0.327100     0.004307
NI1939   NI        0.667267    0.759694    0.365734     0.004307
CU1940   CU        0.697176    0.725188    0.363737     0.006663
NI1941   NI        0.697071    0.757832    0.331640     0.004307
NI1942   NI        0.730298    0.722703    0.328880     0.004307
NI1943   NI        0.730584    0.759015    0.364646     0.004307
CU1944   CU        0.764337    0.726377    0.363780     0.006663
NI1945   NI        0.763886    0.757801    0.331994     0.004307
NI1946   NI        0.793730    0.723573    0.329533     0.004307
NI1947   NI        0.797521    0.757678    0.363832     0.004307
NI1948   NI        0.143068    0.791250    0.364798     0.004307
NI1949   NI        0.174781    0.790172    0.332495     0.004307
NI1950   NI        0.206269    0.792377    0.367418     0.004307
NI1951   NI        0.205511    0.821810    0.332987     0.004307
NI1952   NI        0.241944    0.792132    0.329074     0.004307
NI1953   NI        0.241351    0.822190    0.365719     0.004307
NI1954   NI        0.276614    0.795657    0.362914     0.004307
NI1955   NI        0.275923    0.823718    0.325055     0.004307
NI1956   NI        0.308302    0.793623    0.325150     0.004307
NI1957   NI        0.316920    0.817084    0.365715     0.004307
NI1958   NI        0.350689    0.782025    0.370139     0.004307
NI1959   NI        0.343642    0.826745    0.327220     0.004307
NI1960   NI        0.385504    0.787025    0.338687     0.004307
NI1961   NI        0.383909    0.823998    0.363399     0.004307
NI1962   NI        0.420146    0.792505    0.364071     0.004307
CU1963   CU        0.417425    0.824258    0.325049     0.006663
NI1964   NI        0.450496    0.792740    0.326370     0.004307
NI1965   NI        0.452386    0.826687    0.363050     0.004307
CU1966   CU        0.489285    0.798943    0.366341     0.006663
NI1967   NI        0.487246    0.825622    0.328572     0.004307
CU1968   CU        0.521535    0.795062    0.332488     0.006663
NI1969   NI        0.522659    0.828578    0.364753     0.004307
NI1970   NI        0.556433    0.795553    0.363365     0.004307
NI1971   NI        0.555547    0.826544    0.330995     0.004307
NI1972   NI        0.596701    0.790838    0.329791     0.004307
NI1973   NI        0.596382    0.824505    0.363531     0.004307
NI1974   NI        0.630141    0.796100    0.365443     0.004307
NI1975   NI        0.629124    0.823458    0.326055     0.004307
NI1976   NI        0.664231    0.791041    0.332307     0.004307
NI1977   NI        0.665114    0.825740    0.364557     0.004307
NI1978   NI        0.697560    0.793192    0.364782     0.004307
NI1979   NI        0.696065    0.822937    0.327274     0.004307
NI1980   NI        0.730734    0.790432    0.332357     0.004307
NI1981   NI        0.764263    0.788813    0.366369     0.004307
NI1982   NI        0.276101    0.852831    0.366395     0.004307
CU1983   CU        0.307090    0.856486    0.328109     0.006663
NI1984   NI        0.310084    0.885245    0.363728     0.004307
NI1985   NI        0.384096    0.855293    0.327043     0.004307
NI1986   NI        0.380896    0.884431    0.362912     0.004307
CU1987   CU        0.416358    0.856167    0.361457     0.006663
NI1988   NI        0.417216    0.887504    0.328391     0.004307
CU1989   CU        0.451428    0.854687    0.328491     0.006663
NI1990   NI        0.452509    0.886884    0.363548     0.004307
NI1991   NI        0.485644    0.856728    0.366028     0.004307
NI1992   NI        0.453892    0.918156    0.328480     0.004307
CU1993   CU        0.518573    0.855648    0.326427     0.006663
NI1994   NI        0.522403    0.883728    0.363166     0.004307
NI1995   NI        0.560052    0.857706    0.366359     0.004307
NI1996   NI        0.592220    0.853486    0.330149     0.004307
NI1997   NI        0.630527    0.894026    0.321421     0.004307
CU1998   CU        0.313283    0.003201    0.435522     0.006663
NI1999   NI        0.345309    0.004139    0.400163     0.004307
NI2000   NI        0.381515    0.004034    0.433739     0.004307
NI2001   NI        0.415752    0.002971    0.399937     0.004307
NI2002   NI        0.448610    0.002864    0.431999     0.004307
NI2003   NI        0.486104    0.003683    0.396346     0.004307
NI2004   NI        0.529455    0.008829    0.437204     0.004307
NI2005   NI        0.557914    0.005788    0.401488     0.004307
NI2006   NI        0.596554    0.005110    0.433998     0.004307
NI2007   NI        0.172633    0.068163    0.435680     0.004307
NI2008   NI        0.206296    0.067432    0.399672     0.004307
NI2009   NI        0.242608    0.035135    0.400312     0.004307
NI2010   NI        0.239503    0.064064    0.433831     0.004307
NI2011   NI        0.278178    0.036922    0.432611     0.004307
NI2012   NI        0.275785    0.065260    0.396644     0.004307
NI2013   NI        0.312702    0.035764    0.398656     0.004307
NI2014   NI        0.311511    0.067213    0.432752     0.004307
CU2015   CU        0.344883    0.035411    0.433158     0.006663
NI2016   NI        0.344493    0.067063    0.398269     0.004307
NI2017   NI        0.379904    0.034127    0.399472     0.004307
NI2018   NI        0.381496    0.061319    0.436039     0.004307
CU2019   CU        0.416819    0.032995    0.435845     0.006663
CU2020   CU        0.417906    0.062889    0.400312     0.006663
NI2021   NI        0.452749    0.032854    0.398455     0.004307
NI2022   NI        0.452937    0.060480    0.436877     0.004307
CU2023   CU        0.487851    0.028673    0.435172     0.006663
CU2024   CU        0.488296    0.063518    0.400955     0.006663
CU2025   CU        0.523364    0.035048    0.399937     0.006663
NI2026   NI        0.522191    0.061367    0.435854     0.004307
CU2027   CU        0.561619    0.036318    0.433473     0.006663
NI2028   NI        0.561528    0.066862    0.398755     0.004307
NI2029   NI        0.595235    0.037280    0.400227     0.004307
CU2030   CU        0.596192    0.067479    0.433769     0.006663
NI2031   NI        0.629865    0.036751    0.435817     0.004307
NI2032   NI        0.629439    0.068280    0.401256     0.004307
NI2033   NI        0.661774    0.036160    0.397960     0.004307
NI2034   NI        0.663769    0.067420    0.434651     0.004307
NI2035   NI        0.697423    0.070213    0.398153     0.004307
NI2036   NI        0.731277    0.069914    0.435982     0.004307
NI2037   NI        0.108382    0.098953    0.395496     0.004307
NI2038   NI        0.139345    0.100682    0.431998     0.004307
CU2039   CU        0.137173    0.133864    0.397933     0.006663
NI2040   NI        0.174279    0.100660    0.400139     0.004307
NI2041   NI        0.171498    0.131239    0.434397     0.004307
NI2042   NI        0.204759    0.097730    0.435015     0.004307
NI2043   NI        0.205350    0.130093    0.399151     0.004307
NI2044   NI        0.238002    0.097521    0.397502     0.004307
NI2045   NI        0.237947    0.127960    0.432322     0.004307
CU2046   CU        0.274120    0.098403    0.433512     0.006663
NI2047   NI        0.273284    0.130660    0.396823     0.004307
NI2048   NI        0.309650    0.097405    0.397554     0.004307
NI2049   NI        0.319141    0.147555    0.436117     0.004307
NI2050   NI        0.348354    0.094981    0.434424     0.004307
NI2051   NI        0.353371    0.150423    0.402651     0.004307
NI2052   NI        0.381549    0.093937    0.402453     0.004307
NI2053   NI        0.382181    0.145589    0.438005     0.004307
NI2054   NI        0.420707    0.094408    0.433040     0.004307
NI2055   NI        0.419115    0.125173    0.400145     0.004307
NI2056   NI        0.452695    0.094332    0.400107     0.004307
NI2057   NI        0.456129    0.123410    0.434476     0.004307
NI2058   NI        0.487948    0.092860    0.436962     0.004307
NI2059   NI        0.490793    0.124876    0.400188     0.004307
NI2060   NI        0.524528    0.095468    0.400639     0.004307
NI2061   NI        0.523429    0.126849    0.433883     0.004307
CU2062   CU        0.560482    0.097693    0.434711     0.006663
NI2063   NI        0.560272    0.129170    0.401107     0.004307
NI2064   NI        0.595898    0.097582    0.399301     0.004307
NI2065   NI        0.593757    0.131752    0.436925     0.004307
NI2066   NI        0.630609    0.100749    0.433222     0.004307
NI2067   NI        0.627563    0.131427    0.399229     0.004307
NI2068   NI        0.664597    0.101517    0.399928     0.004307
NI2069   NI        0.664274    0.131303    0.436245     0.004307
CU2070   CU        0.696139    0.098553    0.434559     0.006663
CU2071   CU        0.699359    0.133644    0.399175     0.006663
CU2072   CU        0.733180    0.101194    0.400205     0.006663
NI2073   NI        0.732780    0.133871    0.434098     0.004307
NI2074   NI        0.767123    0.102800    0.435971     0.004307
CU2075   CU        0.763925    0.136509    0.402763     0.006663
NI2076   NI        0.798569    0.135286    0.433651     0.004307
NI2077   NI        0.073412    0.168936    0.431895     0.004307
NI2078   NI        0.073811    0.205152    0.398395     0.004307
NI2079   NI        0.103190    0.168492    0.398001     0.004307
NI2080   NI        0.105545    0.199192    0.434445     0.004307
NI2081   NI        0.136976    0.165258    0.435330     0.004307
NI2082   NI        0.135400    0.202139    0.401001     0.004307
NI2083   NI        0.170268    0.164760    0.401901     0.004307
NI2084   NI        0.170507    0.197431    0.435837     0.004307
NI2085   NI        0.204627    0.160884    0.435907     0.004307
NI2086   NI        0.227603    0.211833    0.407553     0.004307
NI2087   NI        0.255991    0.177577    0.402938     0.004307
NI2088   NI        0.254620    0.213559    0.441064     0.004307
NI2089   NI        0.286801    0.179187    0.438078     0.004307
CU2090   CU        0.289014    0.215827    0.406735     0.006663
NI2091   NI        0.320082    0.181296    0.404067     0.004307
NI2092   NI        0.318369    0.211768    0.438545     0.004307
CU2093   CU        0.351116    0.177376    0.437899     0.006663
NI2094   NI        0.352157    0.215362    0.405818     0.004307
NI2095   NI        0.387275    0.180163    0.403848     0.004307
NI2096   NI        0.384779    0.211693    0.438377     0.004307
NI2097   NI        0.419432    0.178609    0.436640     0.004307
CU2098   CU        0.419553    0.212931    0.402888     0.006663
NI2099   NI        0.450594    0.177798    0.399912     0.004307
CU2100   CU        0.455284    0.210987    0.438306     0.006663
NI2101   NI        0.487230    0.176093    0.436512     0.004307
CU2102   CU        0.486346    0.208941    0.402847     0.006663
NI2103   NI        0.525319    0.156495    0.400665     0.004307
NI2104   NI        0.516806    0.211468    0.434128     0.004307
CU2105   CU        0.558410    0.160952    0.439416     0.006663
NI2106   NI        0.553486    0.215887    0.403543     0.004307
CU2107   CU        0.591250    0.166028    0.401488     0.006663
NI2108   NI        0.593280    0.199906    0.432963     0.004307
CU2109   CU        0.630855    0.163004    0.431883     0.006663
NI2110   NI        0.623647    0.218797    0.407526     0.004307
NI2111   NI        0.663862    0.161733    0.399172     0.004307
CU2112   CU        0.665018    0.193760    0.432962     0.006663
NI2113   NI        0.699473    0.165166    0.433046     0.004307
NI2114   NI        0.695620    0.195552    0.398418     0.004307
NI2115   NI        0.732777    0.166616    0.400038     0.004307
CU2116   CU        0.735261    0.199470    0.434025     0.006663
CU2117   CU        0.766418    0.166936    0.436783     0.006663
NI2118   NI        0.764954    0.198721    0.399592     0.004307
CU2119   CU        0.797850    0.167800    0.399948     0.006663
NI2120   NI        0.799551    0.201920    0.436619     0.004307
NI2121   NI        0.865709    0.199860    0.432891     0.004307
NI2122   NI        0.830390    0.201071    0.401512     0.004307
NI2123   NI        0.038921    0.236389    0.398209     0.004307
NI2124   NI        0.042977    0.270286    0.435953     0.004307
NI2125   NI        0.073742    0.235367    0.433204     0.004307
NI2126   NI        0.074270    0.267662    0.396068     0.004307
CU2127   CU        0.107168    0.237142    0.399399     0.006663
NI2128   NI        0.103464    0.269683    0.433748     0.004307
NI2129   NI        0.137907    0.234192    0.435143     0.004307
CU2130   CU        0.134571    0.273248    0.397646     0.006663
NI2131   NI        0.183819    0.258871    0.399827     0.004307
NI2132   NI        0.163119    0.272590    0.434749     0.004307
NI2133   NI        0.217083    0.246287    0.438181     0.004307
NI2134   NI        0.219999    0.281867    0.405839     0.004307
CU2135   CU        0.254206    0.248135    0.408108     0.006663
NI2136   NI        0.250770    0.279224    0.438683     0.004307
CU2137   CU        0.286350    0.245446    0.439624     0.006663
NI2138   NI        0.283631    0.283033    0.406771     0.004307
NI2139   NI        0.319544    0.247120    0.407329     0.004307
NI2140   NI        0.318925    0.280358    0.439189     0.004307
CU2141   CU        0.351912    0.245564    0.439212     0.006663
CU2142   CU        0.351848    0.281061    0.406259     0.006663
CU2143   CU        0.386063    0.245340    0.405163     0.006663
CU2144   CU        0.383307    0.277793    0.439944     0.006663
CU2145   CU        0.421403    0.245261    0.435817     0.006663
CU2146   CU        0.422368    0.277819    0.404322     0.006663
CU2147   CU        0.453198    0.245821    0.403824     0.006663
CU2148   CU        0.453985    0.279243    0.437344     0.006663
NI2149   NI        0.487922    0.243620    0.438228     0.004307
CU2150   CU        0.486941    0.278812    0.404884     0.006663
CU2151   CU        0.518128    0.246101    0.403626     0.006663
CU2152   CU        0.521401    0.280372    0.437465     0.006663
CU2153   CU        0.552585    0.248773    0.436146     0.006663
CU2154   CU        0.552450    0.280969    0.402047     0.006663
CU2155   CU        0.584930    0.247451    0.407091     0.006663
CU2156   CU        0.585149    0.280342    0.436658     0.006663
CU2157   CU        0.618681    0.250913    0.439107     0.006663
CU2158   CU        0.619287    0.280077    0.404747     0.006663
NI2159   NI        0.655234    0.248015    0.404314     0.004307
CU2160   CU        0.653806    0.279806    0.437897     0.006663
NI2161   NI        0.687504    0.245599    0.438828     0.004307
NI2162   NI        0.685148    0.280127    0.406471     0.004307
NI2163   NI        0.733372    0.230224    0.398162     0.004307
NI2164   NI        0.718693    0.279992    0.438858     0.004307
NI2165   NI        0.768771    0.232834    0.434057     0.004307
NI2166   NI        0.765398    0.265191    0.396710     0.004307
NI2167   NI        0.799421    0.233123    0.400562     0.004307
NI2168   NI        0.800827    0.269315    0.433093     0.004307
NI2169   NI        0.832873    0.234485    0.432665     0.004307
NI2170   NI        0.831609    0.271833    0.399647     0.004307
NI2171   NI        0.862933    0.236565    0.399842     0.004307
NI2172   NI        0.862502    0.272204    0.434838     0.004307
NI2173   NI        0.014873    0.307712    0.432742     0.004307
NI2174   NI        0.013503    0.336014    0.397095     0.004307
CU2175   CU        0.045597    0.301500    0.400042     0.006663
NI2176   NI        0.032195    0.349194    0.435892     0.004307
NI2177   NI        0.073037    0.308203    0.438434     0.004307
NI2178   NI        0.067058    0.342124    0.404842     0.004307
NI2179   NI        0.096637    0.306271    0.401469     0.004307
NI2180   NI        0.101194    0.343588    0.435167     0.004307
NI2181   NI        0.131864    0.306137    0.430419     0.004307
NI2182   NI        0.129945    0.339711    0.398639     0.004307
NI2183   NI        0.163433    0.305609    0.398731     0.004307
NI2184   NI        0.164014    0.340904    0.429488     0.004307
NI2185   NI        0.218103    0.312856    0.439557     0.004307
NI2186   NI        0.216681    0.346851    0.404612     0.004307
NI2187   NI        0.250684    0.315119    0.405076     0.004307
CU2188   CU        0.248778    0.348104    0.435917     0.006663
CU2189   CU        0.282885    0.315027    0.438411     0.006663
CU2190   CU        0.283991    0.347807    0.405219     0.006663
CU2191   CU        0.318366    0.313006    0.406534     0.006663
CU2192   CU        0.317654    0.347949    0.436885     0.006663
CU2193   CU        0.351658    0.313360    0.438319     0.006663
CU2194   CU        0.350897    0.346979    0.404139     0.006663
CU2195   CU        0.385580    0.313502    0.405620     0.006663
CU2196   CU        0.385818    0.347278    0.439297     0.006663
CU2197   CU        0.419114    0.310502    0.438163     0.006663
CU2198   CU        0.415638    0.345716    0.404055     0.006663
NI2199   NI        0.454204    0.312822    0.405501     0.004307
CU2200   CU        0.451717    0.347277    0.437306     0.006663
CU2201   CU        0.486921    0.312352    0.438800     0.006663
CU2202   CU        0.483570    0.345995    0.402873     0.006663
CU2203   CU        0.518702    0.312908    0.404809     0.006663
CU2204   CU        0.516949    0.346928    0.437831     0.006663
CU2205   CU        0.551208    0.315462    0.435943     0.006663
CU2206   CU        0.554014    0.346611    0.403305     0.006663
CU2207   CU        0.586822    0.312253    0.404990     0.006663
NI2208   NI        0.585220    0.345569    0.438350     0.004307
CU2209   CU        0.618761    0.312870    0.438080     0.006663
NI2210   NI        0.618235    0.347554    0.403181     0.004307
NI2211   NI        0.651505    0.313541    0.405623     0.004307
NI2212   NI        0.652004    0.348344    0.437133     0.004307
CU2213   CU        0.685953    0.313273    0.437681     0.006663
CU2214   CU        0.684977    0.343793    0.403998     0.006663
CU2215   CU        0.717853    0.312545    0.405965     0.006663
NI2216   NI        0.717142    0.348180    0.437760     0.004307
NI2217   NI        0.750722    0.311375    0.438500     0.004307
NI2218   NI        0.775020    0.341915    0.398624     0.004307
NI2219   NI        0.804788    0.307372    0.399813     0.004307
NI2220   NI        0.806497    0.343062    0.433945     0.004307
NI2221   NI        0.834572    0.308474    0.436199     0.004307
NI2222   NI        0.835520    0.341128    0.398698     0.004307
CU2223   CU        0.864145    0.304448    0.403270     0.006663
NI2224   NI        0.865280    0.341953    0.436216     0.004307
CU2225   CU        0.893256    0.306919    0.439998     0.006663
NI2226   NI        0.899243    0.340552    0.404764     0.004307
CU2227   CU        0.002646    0.383835    0.436555     0.006663
NI2228   NI        0.006563    0.412133    0.398492     0.004307
NI2229   NI        0.034955    0.377380    0.402295     0.004307
NI2230   NI        0.035851    0.413109    0.433528     0.004307
CU2231   CU        0.068514    0.378381    0.434697     0.006663
NI2232   NI        0.068669    0.412753    0.400725     0.004307
NI2233   NI        0.098812    0.376973    0.400457     0.004307
NI2234   NI        0.100511    0.411736    0.433767     0.004307
NI2235   NI        0.132756    0.375857    0.433771     0.004307
NI2236   NI        0.131565    0.413233    0.398833     0.004307
NI2237   NI        0.184101    0.377643    0.401112     0.004307
NI2238   NI        0.182573    0.416078    0.436807     0.004307
NI2239   NI        0.214623    0.382710    0.434330     0.004307
NI2240   NI        0.213510    0.416035    0.400629     0.004307
CU2241   CU        0.247702    0.380802    0.404574     0.006663
CU2242   CU        0.247251    0.416003    0.434592     0.006663
CU2243   CU        0.282555    0.382468    0.435135     0.006663
CU2244   CU        0.280226    0.415566    0.402305     0.006663
NI2245   NI        0.317485    0.382011    0.403896     0.004307
CU2246   CU        0.316995    0.416203    0.435161     0.006663
CU2247   CU        0.350191    0.380463    0.436389     0.006663
CU2248   CU        0.351515    0.415481    0.400850     0.006663
CU2249   CU        0.384755    0.379482    0.403679     0.006663
CU2250   CU        0.382720    0.414968    0.435856     0.006663
CU2251   CU        0.419009    0.378932    0.437162     0.006663
CU2252   CU        0.417230    0.415574    0.402453     0.006663
CU2253   CU        0.451500    0.379147    0.401860     0.006663
CU2254   CU        0.449417    0.411360    0.435213     0.006663
CU2255   CU        0.484059    0.379922    0.437075     0.006663
CU2256   CU        0.486785    0.413993    0.402430     0.006663
CU2257   CU        0.520860    0.378721    0.403464     0.006663
CU2258   CU        0.517911    0.412290    0.436667     0.006663
CU2259   CU        0.551374    0.380955    0.436773     0.006663
CU2260   CU        0.550843    0.414968    0.402772     0.006663
CU2261   CU        0.584174    0.381915    0.403480     0.006663
CU2262   CU        0.587224    0.417284    0.434831     0.006663
CU2263   CU        0.619753    0.380955    0.437761     0.006663
CU2264   CU        0.617792    0.416470    0.403946     0.006663
CU2265   CU        0.653510    0.380925    0.402622     0.006663
CU2266   CU        0.650389    0.412933    0.437463     0.006663
CU2267   CU        0.684884    0.380778    0.437433     0.006663
CU2268   CU        0.686317    0.415232    0.404347     0.006663
CU2269   CU        0.717522    0.381527    0.405163     0.006663
CU2270   CU        0.718026    0.413244    0.438538     0.006663
NI2271   NI        0.773977    0.374810    0.431010     0.004307
CU2272   CU        0.772883    0.407765    0.399745     0.006663
NI2273   NI        0.805946    0.376377    0.400359     0.004307
NI2274   NI        0.804086    0.411826    0.431911     0.004307
NI2275   NI        0.835508    0.377570    0.434734     0.004307
CU2276   CU        0.835881    0.412316    0.399189     0.006663
NI2277   NI        0.866030    0.375379    0.400277     0.004307
NI2278   NI        0.867510    0.411866    0.434305     0.004307
NI2279   NI        0.896602    0.375242    0.433532     0.004307
CU2280   CU        0.898400    0.410777    0.399432     0.006663
NI2281   NI        0.007703    0.447526    0.436767     0.004307
NI2282   NI        0.007020    0.482718    0.399004     0.004307
NI2283   NI        0.034857    0.445654    0.397623     0.004307
CU2284   CU        0.035922    0.480724    0.435743     0.006663
NI2285   NI        0.069421    0.446581    0.431724     0.004307
CU2286   CU        0.067428    0.482605    0.400634     0.006663
CU2287   CU        0.099317    0.448168    0.397877     0.006663
NI2288   NI        0.097699    0.480247    0.435682     0.004307
CU2289   CU        0.129841    0.445887    0.433516     0.006663
CU2290   CU        0.129114    0.480891    0.402254     0.006663
NI2291   NI        0.184251    0.450076    0.404210     0.004307
CU2292   CU        0.185808    0.481031    0.439501     0.006663
CU2293   CU        0.215109    0.449286    0.435302     0.006663
CU2294   CU        0.215255    0.481686    0.402545     0.006663
CU2295   CU        0.246901    0.448813    0.401988     0.006663
CU2296   CU        0.249349    0.479733    0.436970     0.006663
NI2297   NI        0.283181    0.448911    0.435195     0.004307
CU2298   CU        0.280026    0.483727    0.402167     0.006663
CU2299   CU        0.314743    0.447985    0.401412     0.006663
CU2300   CU        0.315252    0.482427    0.436271     0.006663
CU2301   CU        0.349651    0.448476    0.435675     0.006663
CU2302   CU        0.349417    0.480608    0.402785     0.006663
CU2303   CU        0.383941    0.448824    0.401365     0.006663
CU2304   CU        0.385731    0.480908    0.436301     0.006663
CU2305   CU        0.416360    0.447193    0.435167     0.006663
CU2306   CU        0.417146    0.480206    0.400665     0.006663
CU2307   CU        0.454325    0.445854    0.403613     0.006663
CU2308   CU        0.451697    0.480073    0.434763     0.006663
CU2309   CU        0.485650    0.445513    0.435711     0.006663
CU2310   CU        0.486575    0.480191    0.403003     0.006663
CU2311   CU        0.518607    0.448572    0.401702     0.006663
CU2312   CU        0.516768    0.481758    0.437206     0.006663
CU2313   CU        0.551103    0.447974    0.436239     0.006663
CU2314   CU        0.553117    0.481025    0.402838     0.006663
CU2315   CU        0.586237    0.449907    0.404902     0.006663
CU2316   CU        0.584514    0.482362    0.436877     0.006663
CU2317   CU        0.618280    0.450056    0.438103     0.006663
CU2318   CU        0.619447    0.481593    0.402699     0.006663
CU2319   CU        0.652506    0.449137    0.404243     0.006663
CU2320   CU        0.654710    0.479757    0.438653     0.006663
CU2321   CU        0.686004    0.446684    0.438496     0.006663
NI2322   NI        0.685738    0.478868    0.404713     0.004307
NI2323   NI        0.721988    0.446883    0.402821     0.004307
CU2324   CU        0.720069    0.481114    0.438365     0.006663
NI2325   NI        0.749248    0.447281    0.439103     0.004307
NI2326   NI        0.751892    0.481898    0.407928     0.004307
NI2327   NI        0.805094    0.445458    0.397970     0.004307
NI2328   NI        0.806873    0.482952    0.434989     0.004307
NI2329   NI        0.835806    0.449398    0.433827     0.004307
CU2330   CU        0.833966    0.481587    0.396807     0.006663
NI2331   NI        0.868583    0.448153    0.397652     0.004307
NI2332   NI        0.869823    0.482183    0.433544     0.004307
NI2333   NI        0.899955    0.442598    0.437629     0.004307
NI2334   NI        0.894878    0.486470    0.395743     0.004307
NI2335   NI        0.011446    0.519709    0.433263     0.004307
NI2336   NI        0.009125    0.551998    0.400342     0.004307
NI2337   NI        0.038469    0.518242    0.400519     0.004307
NI2338   NI        0.042076    0.555779    0.432578     0.004307
NI2339   NI        0.065152    0.515753    0.435766     0.004307
CU2340   CU        0.069461    0.552889    0.397494     0.006663
NI2341   NI        0.097765    0.516812    0.399926     0.004307
NI2342   NI        0.093527    0.551008    0.436805     0.004307
CU2343   CU        0.128032    0.518035    0.435681     0.006663
NI2344   NI        0.148722    0.552160    0.408069     0.004307
NI2345   NI        0.183421    0.514357    0.402305     0.004307
CU2346   CU        0.183615    0.547613    0.435823     0.006663
CU2347   CU        0.214792    0.515240    0.434788     0.006663
CU2348   CU        0.214602    0.547452    0.402843     0.006663
CU2349   CU        0.249137    0.515839    0.402803     0.006663
CU2350   CU        0.246009    0.547135    0.434348     0.006663
CU2351   CU        0.281480    0.515269    0.438581     0.006663
CU2352   CU        0.284130    0.549060    0.401411     0.006663
CU2353   CU        0.316530    0.515253    0.403589     0.006663
CU2354   CU        0.318205    0.546252    0.437152     0.006663
CU2355   CU        0.351161    0.514742    0.434451     0.006663
CU2356   CU        0.352430    0.547832    0.403230     0.006663
CU2357   CU        0.384847    0.514086    0.401100     0.006663
CU2358   CU        0.386558    0.547766    0.434820     0.006663
CU2359   CU        0.417435    0.513116    0.436646     0.006663
CU2360   CU        0.417914    0.547536    0.402938     0.006663
CU2361   CU        0.451717    0.513250    0.401428     0.006663
CU2362   CU        0.451037    0.546223    0.435526     0.006663
CU2363   CU        0.484625    0.513187    0.434356     0.006663
CU2364   CU        0.485927    0.545284    0.400128     0.006663
NI2365   NI        0.518092    0.514738    0.403084     0.004307
CU2366   CU        0.518647    0.546398    0.435254     0.006663
CU2367   CU        0.552333    0.514437    0.434969     0.006663
CU2368   CU        0.552507    0.545820    0.402976     0.006663
NI2369   NI        0.585437    0.513570    0.403116     0.004307
CU2370   CU        0.586834    0.547250    0.436292     0.006663
CU2371   CU        0.620621    0.512518    0.438508     0.006663
NI2372   NI        0.621335    0.547428    0.401468     0.004307
CU2373   CU        0.654839    0.513988    0.405377     0.006663
CU2374   CU        0.654441    0.547273    0.438726     0.006663
NI2375   NI        0.686635    0.514315    0.438855     0.004307
CU2376   CU        0.686169    0.548173    0.405927     0.006663
NI2377   NI        0.720732    0.513078    0.404281     0.004307
NI2378   NI        0.720605    0.547394    0.437589     0.004307
NI2379   NI        0.752186    0.512648    0.440143     0.004307
CU2380   CU        0.768813    0.554612    0.397409     0.006663
NI2381   NI        0.802462    0.518233    0.399517     0.004307
NI2382   NI        0.797065    0.561203    0.431984     0.004307
NI2383   NI        0.838077    0.514733    0.437667     0.004307
NI2384   NI        0.829781    0.552583    0.398751     0.004307
NI2385   NI        0.860827    0.520069    0.393803     0.004307
NI2386   NI        0.861313    0.554550    0.432632     0.004307
NI2387   NI        0.890302    0.520642    0.428306     0.004307
CU2388   CU        0.892679    0.554009    0.395758     0.006663
CU2389   CU        0.010296    0.586313    0.434886     0.006663
NI2390   NI        0.038865    0.587067    0.397830     0.004307
NI2391   NI        0.041904    0.623882    0.434983     0.004307
NI2392   NI        0.071748    0.590465    0.432100     0.004307
NI2393   NI        0.072847    0.623820    0.400409     0.004307
NI2394   NI        0.111947    0.584015    0.412130     0.004307
CU2395   CU        0.104667    0.624872    0.431997     0.006663
NI2396   NI        0.151043    0.583662    0.441366     0.004307
NI2397   NI        0.135720    0.624542    0.397794     0.004307
NI2398   NI        0.183020    0.581157    0.407115     0.004307
NI2399   NI        0.182689    0.616490    0.438773     0.004307
CU2400   CU        0.215006    0.581673    0.438926     0.006663
CU2401   CU        0.219337    0.611036    0.406935     0.006663
NI2402   NI        0.251346    0.580238    0.402958     0.004307
NI2403   NI        0.253945    0.611282    0.436585     0.004307
CU2404   CU        0.285607    0.579863    0.436841     0.006663
CU2405   CU        0.284268    0.614248    0.405114     0.006663
CU2406   CU        0.318146    0.579662    0.404046     0.006663
NI2407   NI        0.316628    0.613159    0.436986     0.004307
CU2408   CU        0.351895    0.580982    0.437839     0.006663
CU2409   CU        0.351798    0.612965    0.404607     0.006663
CU2410   CU        0.385234    0.581158    0.403118     0.006663
CU2411   CU        0.385795    0.615092    0.435714     0.006663
CU2412   CU        0.419286    0.579571    0.434215     0.006663
CU2413   CU        0.418929    0.614861    0.399920     0.006663
NI2414   NI        0.452282    0.578791    0.402972     0.004307
CU2415   CU        0.449531    0.613373    0.436482     0.006663
CU2416   CU        0.485898    0.578498    0.433717     0.006663
CU2417   CU        0.483476    0.613570    0.402196     0.006663
CU2418   CU        0.519548    0.581284    0.400169     0.006663
CU2419   CU        0.518592    0.613734    0.435429     0.006663
CU2420   CU        0.552069    0.581181    0.434759     0.006663
CU2421   CU        0.552781    0.613618    0.401379     0.006663
CU2422   CU        0.585643    0.580216    0.402856     0.006663
CU2423   CU        0.585689    0.614666    0.435141     0.006663
CU2424   CU        0.619228    0.580065    0.436591     0.006663
CU2425   CU        0.619461    0.614760    0.403700     0.006663
CU2426   CU        0.654603    0.582726    0.404871     0.006663
CU2427   CU        0.653523    0.612329    0.437231     0.006663
NI2428   NI        0.687265    0.579797    0.437927     0.004307
NI2429   NI        0.687624    0.613521    0.404904     0.004307
NI2430   NI        0.722542    0.581889    0.404995     0.004307
NI2431   NI        0.719349    0.612610    0.437663     0.004307
NI2432   NI        0.752999    0.581835    0.439457     0.004307
NI2433   NI        0.770354    0.623744    0.395937     0.004307
NI2434   NI        0.800928    0.589433    0.397449     0.004307
NI2435   NI        0.802056    0.624566    0.432062     0.004307
NI2436   NI        0.832041    0.588426    0.432882     0.004307
CU2437   CU        0.832572    0.623677    0.398249     0.006663
NI2438   NI        0.861917    0.586889    0.398112     0.004307
NI2439   NI        0.863309    0.624620    0.436160     0.004307
NI2440   NI        0.893731    0.591162    0.429381     0.004307
NI2441   NI        0.041898    0.656175    0.402105     0.004307
CU2442   CU        0.073711    0.660589    0.433106     0.006663
NI2443   NI        0.073223    0.694392    0.401179     0.004307
CU2444   CU        0.104172    0.660567    0.397445     0.006663
NI2445   NI        0.106442    0.692889    0.434050     0.004307
NI2446   NI        0.134721    0.659240    0.430663     0.004307
CU2447   CU        0.137239    0.694138    0.399252     0.006663
NI2448   NI        0.169597    0.661081    0.398934     0.004307
NI2449   NI        0.169533    0.692980    0.431496     0.004307
NI2450   NI        0.202657    0.661525    0.433381     0.004307
NI2451   NI        0.205633    0.693328    0.396306     0.004307
NI2452   NI        0.253267    0.645307    0.403154     0.004307
NI2453   NI        0.236618    0.695149    0.433761     0.004307
CU2454   CU        0.284328    0.647681    0.438934     0.006663
NI2455   NI        0.287325    0.676745    0.405774     0.004307
NI2456   NI        0.319482    0.644870    0.404379     0.004307
CU2457   CU        0.319270    0.679512    0.435259     0.006663
CU2458   CU        0.353741    0.649592    0.436797     0.006663
NI2459   NI        0.352181    0.679286    0.403578     0.004307
CU2460   CU        0.385167    0.646032    0.401532     0.006663
CU2461   CU        0.386395    0.680093    0.438889     0.006663
CU2462   CU        0.417659    0.647317    0.438668     0.006663
NI2463   NI        0.417612    0.677899    0.401859     0.004307
CU2464   CU        0.451078    0.647296    0.402373     0.006663
CU2465   CU        0.452218    0.680042    0.436073     0.006663
CU2466   CU        0.484909    0.647484    0.435856     0.006663
CU2467   CU        0.485390    0.682004    0.403111     0.006663
CU2468   CU        0.518862    0.644736    0.402779     0.006663
CU2469   CU        0.519421    0.678877    0.436933     0.006663
CU2470   CU        0.553513    0.646898    0.433889     0.006663
CU2471   CU        0.554975    0.680286    0.402319     0.006663
CU2472   CU        0.589219    0.648833    0.402013     0.006663
NI2473   NI        0.587285    0.681940    0.436755     0.004307
NI2474   NI        0.619494    0.644439    0.436673     0.004307
CU2475   CU        0.621230    0.678406    0.403073     0.006663
NI2476   NI        0.652066    0.645380    0.403160     0.004307
NI2477   NI        0.652172    0.675700    0.435752     0.004307
NI2478   NI        0.683551    0.644281    0.438874     0.004307
NI2479   NI        0.700320    0.697293    0.398651     0.004307
NI2480   NI        0.734491    0.658776    0.396438     0.004307
NI2481   NI        0.731746    0.693288    0.431369     0.004307
NI2482   NI        0.753312    0.647437    0.438471     0.004307
NI2483   NI        0.764689    0.692135    0.396362     0.004307
CU2484   CU        0.798583    0.657662    0.397539     0.006663
CU2485   CU        0.782054    0.679679    0.435974     0.006663
CU2486   CU        0.831806    0.657121    0.433408     0.006663
CU2487   CU        0.830911    0.691364    0.399689     0.006663
NI2488   NI        0.861343    0.657825    0.399689     0.004307
NI2489   NI        0.076469    0.726267    0.435535     0.004307
NI2490   NI        0.106847    0.728748    0.403164     0.004307
NI2491   NI        0.106942    0.759574    0.434868     0.004307
NI2492   NI        0.140698    0.727467    0.435323     0.004307
NI2493   NI        0.138307    0.762083    0.401630     0.004307
CU2494   CU        0.170278    0.726930    0.398953     0.006663
CU2495   CU        0.173766    0.760679    0.433795     0.006663
NI2496   NI        0.202957    0.726362    0.435419     0.004307
NI2497   NI        0.204185    0.760692    0.400438     0.004307
NI2498   NI        0.238656    0.726575    0.396835     0.004307
CU2499   CU        0.240171    0.760519    0.434588     0.006663
NI2500   NI        0.286223    0.712990    0.435834     0.004307
NI2501   NI        0.281863    0.745709    0.401457     0.004307
NI2502   NI        0.317725    0.712880    0.402836     0.004307
NI2503   NI        0.317024    0.747532    0.433329     0.004307
NI2504   NI        0.352019    0.713182    0.434895     0.004307
CU2505   CU        0.348972    0.746816    0.401679     0.006663
CU2506   CU        0.387014    0.713364    0.402780     0.006663
NI2507   NI        0.385529    0.745342    0.434136     0.004307
NI2508   NI        0.418235    0.714579    0.435138     0.004307
NI2509   NI        0.417455    0.749709    0.401725     0.004307
CU2510   CU        0.451152    0.714457    0.402564     0.006663
NI2511   NI        0.453338    0.744845    0.436309     0.004307
CU2512   CU        0.486219    0.712845    0.436176     0.006663
CU2513   CU        0.488247    0.765083    0.397775     0.006663
NI2514   NI        0.519935    0.711761    0.401357     0.004307
CU2515   CU        0.524741    0.763065    0.434826     0.006663
NI2516   NI        0.555225    0.712675    0.435552     0.004307
NI2517   NI        0.556652    0.744655    0.401406     0.004307
NI2518   NI        0.590529    0.711739    0.404341     0.004307
NI2519   NI        0.591154    0.745295    0.434992     0.004307
NI2520   NI        0.622940    0.712950    0.436077     0.004307
NI2521   NI        0.624367    0.741153    0.400892     0.004307
NI2522   NI        0.665677    0.729501    0.399342     0.004307
NI2523   NI        0.660161    0.763204    0.430824     0.004307
NI2524   NI        0.700367    0.728454    0.433799     0.004307
CU2525   CU        0.698728    0.759247    0.397204     0.006663
NI2526   NI        0.732734    0.727681    0.398832     0.004307
CU2527   CU        0.734158    0.760057    0.433658     0.006663
CU2528   CU        0.765150    0.726998    0.434501     0.006663
CU2529   CU        0.764990    0.757467    0.400776     0.006663
NI2530   NI        0.796232    0.726028    0.398968     0.004307
CU2531   CU        0.797361    0.757950    0.434351     0.006663
NI2532   NI        0.828881    0.723678    0.433630     0.004307
NI2533   NI        0.141435    0.790973    0.435174     0.004307
NI2534   NI        0.171976    0.794123    0.401414     0.004307
NI2535   NI        0.175353    0.824828    0.434020     0.004307
CU2536   CU        0.208042    0.792706    0.435797     0.006663
NI2537   NI        0.210689    0.825151    0.401486     0.004307
NI2538   NI        0.238615    0.790769    0.400883     0.004307
CU2539   CU        0.240601    0.825841    0.433897     0.006663
NI2540   NI        0.272109    0.793138    0.436243     0.004307
NI2541   NI        0.272527    0.825895    0.402656     0.004307
NI2542   NI        0.311797    0.780836    0.391302     0.004307
NI2543   NI        0.309467    0.827417    0.433974     0.004307
NI2544   NI        0.348897    0.799410    0.435887     0.004307
CU2545   CU        0.347475    0.834515    0.400672     0.006663
NI2546   NI        0.379156    0.800628    0.403189     0.004307
NI2547   NI        0.380798    0.830300    0.436694     0.004307
NI2548   NI        0.418429    0.778144    0.435386     0.004307
NI2549   NI        0.418941    0.826862    0.396105     0.004307
NI2550   NI        0.454157    0.796052    0.398940     0.004307
CU2551   CU        0.451628    0.829830    0.433051     0.006663
NI2552   NI        0.487299    0.797773    0.433714     0.004307
NI2553   NI        0.489259    0.826514    0.399938     0.004307
NI2554   NI        0.521537    0.794553    0.396578     0.004307
CU2555   CU        0.522435    0.827979    0.434470     0.006663
NI2556   NI        0.555701    0.798100    0.433928     0.004307
NI2557   NI        0.557074    0.826283    0.399684     0.004307
NI2558   NI        0.593926    0.795861    0.399853     0.004307
NI2559   NI        0.594685    0.828609    0.433539     0.004307
NI2560   NI        0.630153    0.795707    0.432136     0.004307
CU2561   CU        0.628959    0.828206    0.399769     0.006663
NI2562   NI        0.663091    0.794093    0.397806     0.004307
NI2563   NI        0.661867    0.828117    0.434118     0.004307
NI2564   NI        0.698603    0.792692    0.432410     0.004307
NI2565   NI        0.696810    0.826414    0.400582     0.004307
NI2566   NI        0.731451    0.792971    0.399319     0.004307
NI2567   NI        0.731354    0.825685    0.432067     0.004307
CU2568   CU        0.764239    0.794332    0.430769     0.006663
NI2569   NI        0.241792    0.856604    0.399329     0.004307
NI2570   NI        0.276009    0.857060    0.435446     0.004307
NI2571   NI        0.306732    0.858759    0.401748     0.004307
CU2572   CU        0.311381    0.887932    0.434201     0.006663
CU2573   CU        0.345529    0.857876    0.437296     0.006663
NI2574   NI        0.344155    0.883184    0.397917     0.004307
CU2575   CU        0.384601    0.857056    0.399218     0.006663
NI2576   NI        0.383104    0.889633    0.430177     0.004307
NI2577   NI        0.417612    0.860632    0.432641     0.004307
NI2578   NI        0.417126    0.886608    0.393566     0.004307
NI2579   NI        0.453119    0.858934    0.401029     0.004307
NI2580   NI        0.453887    0.890515    0.435809     0.004307
CU2581   CU        0.487111    0.859264    0.432432     0.006663
NI2582   NI        0.489248    0.888892    0.397815     0.004307
NI2583   NI        0.523921    0.858507    0.399916     0.004307
NI2584   NI        0.525252    0.887817    0.434796     0.004307
CU2585   CU        0.559873    0.856949    0.435237     0.006663
NI2586   NI        0.555028    0.890658    0.399388     0.004307
NI2587   NI        0.591231    0.856972    0.400669     0.004307
NI2588   NI        0.593131    0.889571    0.434108     0.004307
NI2589   NI        0.626663    0.858754    0.434169     0.004307
NI2590   NI        0.662791    0.857257    0.400606     0.004307
NI2591   NI        0.313290    0.004774    0.502187     0.004307
NI2592   NI        0.345963    0.000667    0.468771     0.004307
NI2593   NI        0.378581    0.006041    0.511020     0.004307
NI2594   NI        0.416804    0.003137    0.470539     0.004307
NI2595   NI        0.452267    0.001785    0.509745     0.004307
NI2596   NI        0.499874    0.001789    0.469678     0.004307
NI2597   NI        0.531127    0.006783    0.504470     0.004307
NI2598   NI        0.560969    0.003807    0.470089     0.004307
NI2599   NI        0.592718    0.002865    0.503137     0.004307
NI2600   NI        0.170723    0.070615    0.504098     0.004307
CU2601   CU        0.206946    0.069471    0.468670     0.006663
CU2602   CU        0.241881    0.036674    0.469802     0.006663
NI2603   NI        0.242431    0.067360    0.503452     0.004307
NI2604   NI        0.274937    0.035706    0.503007     0.004307
NI2605   NI        0.275725    0.067067    0.469908     0.004307
NI2606   NI        0.312259    0.035189    0.470471     0.004307
CU2607   CU        0.311676    0.067130    0.504871     0.006663
NI2608   NI        0.345805    0.036589    0.502976     0.004307
NI2609   NI        0.348299    0.066114    0.468491     0.004307
NI2610   NI        0.381459    0.032805    0.472469     0.004307
NI2611   NI        0.382569    0.065667    0.505029     0.004307
NI2612   NI        0.417744    0.033288    0.506659     0.004307
CU2613   CU        0.418067    0.063717    0.469580     0.006663
NI2614   NI        0.454874    0.030168    0.471857     0.004307
CU2615   CU        0.453902    0.061721    0.503831     0.006663
NI2616   NI        0.490428    0.032689    0.506317     0.004307
NI2617   NI        0.485235    0.063040    0.470193     0.004307
NI2618   NI        0.527879    0.036605    0.473122     0.004307
NI2619   NI        0.522375    0.064942    0.508379     0.004307
NI2620   NI        0.562599    0.036238    0.504789     0.004307
NI2621   NI        0.561220    0.066413    0.466673     0.004307
NI2622   NI        0.596236    0.036416    0.467653     0.004307
CU2623   CU        0.594577    0.068355    0.506038     0.006663
NI2624   NI        0.628415    0.036774    0.504883     0.004307
NI2625   NI        0.627109    0.067556    0.468528     0.004307
NI2626   NI        0.660013    0.038240    0.468306     0.004307
NI2627   NI        0.664052    0.065923    0.505830     0.004307
NI2628   NI        0.699107    0.068241    0.470265     0.004307
NI2629   NI        0.735264    0.040704    0.470745     0.004307
NI2630   NI        0.106029    0.136102    0.503008     0.004307
NI2631   NI        0.139516    0.104221    0.503713     0.004307
CU2632   CU        0.139201    0.132143    0.469363     0.006663
NI2633   NI        0.173977    0.101373    0.467936     0.004307
NI2634   NI        0.173684    0.133109    0.502318     0.004307
NI2635   NI        0.210405    0.100687    0.504132     0.004307
NI2636   NI        0.207368    0.133549    0.470285     0.004307
NI2637   NI        0.243241    0.099135    0.468422     0.004307
NI2638   NI        0.240213    0.134031    0.508663     0.004307
NI2639   NI        0.274671    0.096811    0.504834     0.004307
NI2640   NI        0.284933    0.146898    0.471272     0.004307
NI2641   NI        0.311992    0.095550    0.467780     0.004307
NI2642   NI        0.316302    0.147242    0.503606     0.004307
NI2643   NI        0.348606    0.094483    0.503168     0.004307
NI2644   NI        0.348704    0.148893    0.471869     0.004307
NI2645   NI        0.380791    0.095633    0.467382     0.004307
NI2646   NI        0.383114    0.148654    0.503877     0.004307
NI2647   NI        0.419417    0.093403    0.504083     0.004307
NI2648   NI        0.414987    0.149014    0.470721     0.004307
NI2649   NI        0.454219    0.094978    0.469154     0.004307
NI2650   NI        0.451902    0.123946    0.504342     0.004307
NI2651   NI        0.487941    0.095847    0.503784     0.004307
CU2652   CU        0.488288    0.125733    0.469162     0.006663
NI2653   NI        0.520788    0.095449    0.469078     0.004307
NI2654   NI        0.521111    0.125285    0.503665     0.004307
NI2655   NI        0.555774    0.096548    0.509521     0.004307
NI2656   NI        0.552855    0.125425    0.469467     0.004307
CU2657   CU        0.593738    0.099111    0.468999     0.006663
NI2658   NI        0.591691    0.125024    0.510768     0.004307
NI2659   NI        0.630753    0.098131    0.504113     0.004307
NI2660   NI        0.629308    0.132326    0.469678     0.004307
NI2661   NI        0.664985    0.100136    0.470524     0.004307
CU2662   CU        0.662621    0.133346    0.503956     0.006663
NI2663   NI        0.696724    0.099320    0.503977     0.004307
CU2664   CU        0.697398    0.132932    0.469891     0.006663
NI2665   NI        0.732063    0.103411    0.470101     0.004307
CU2666   CU        0.729382    0.134403    0.504784     0.006663
CU2667   CU        0.763819    0.104420    0.507912     0.006663
NI2668   NI        0.762942    0.134504    0.469448     0.004307
NI2669   NI        0.797689    0.135544    0.506858     0.004307
NI2670   NI        0.075798    0.167194    0.504947     0.004307
NI2671   NI        0.075360    0.203313    0.468532     0.004307
NI2672   NI        0.104757    0.168085    0.470864     0.004307
CU2673   CU        0.104830    0.201853    0.504661     0.006663
NI2674   NI        0.138080    0.165985    0.503562     0.004307
CU2675   CU        0.137612    0.200004    0.471855     0.006663
NI2676   NI        0.169032    0.164286    0.469669     0.004307
NI2677   NI        0.169785    0.197291    0.509212     0.004307
NI2678   NI        0.205292    0.163721    0.507235     0.004307
NI2679   NI        0.217379    0.214178    0.470259     0.004307
NI2680   NI        0.253743    0.179240    0.470063     0.004307
NI2681   NI        0.249433    0.211260    0.501698     0.004307
NI2682   NI        0.284012    0.179510    0.502858     0.004307
CU2683   CU        0.284922    0.211351    0.472416     0.006663
CU2684   CU        0.318020    0.180097    0.471039     0.006663
CU2685   CU        0.318236    0.211956    0.504748     0.006663
NI2686   NI        0.350237    0.179746    0.503652     0.004307
CU2687   CU        0.352997    0.212742    0.472789     0.006663
CU2688   CU        0.384556    0.179776    0.471169     0.006663
CU2689   CU        0.384394    0.212354    0.506102     0.006663
NI2690   NI        0.416701    0.182051    0.504610     0.004307
CU2691   CU        0.418346    0.214373    0.467498     0.006663
CU2692   CU        0.451891    0.179099    0.470870     0.006663
CU2693   CU        0.451177    0.211689    0.504853     0.006663
NI2694   NI        0.486237    0.178873    0.504444     0.004307
CU2695   CU        0.486893    0.208898    0.471558     0.006663
NI2696   NI        0.519890    0.159018    0.469113     0.004307
CU2697   CU        0.518504    0.212958    0.506719     0.006663
NI2698   NI        0.572273    0.171007    0.504228     0.004307
NI2699   NI        0.567654    0.200526    0.469897     0.004307
NI2700   NI        0.598061    0.168871    0.466384     0.004307
CU2701   CU        0.586030    0.212903    0.507367     0.006663
NI2702   NI        0.624851    0.158504    0.505012     0.004307
NI2703   NI        0.615572    0.214496    0.470113     0.004307
NI2704   NI        0.663197    0.164203    0.468830     0.004307
NI2705   NI        0.652711    0.213943    0.506261     0.004307
NI2706   NI        0.698600    0.164091    0.503817     0.004307
NI2707   NI        0.688280    0.212632    0.471613     0.004307
NI2708   NI        0.732614    0.165616    0.470708     0.004307
NI2709   NI        0.735995    0.200887    0.504699     0.004307
NI2710   NI        0.766120    0.168078    0.504016     0.004307
CU2711   CU        0.767614    0.199520    0.470133     0.006663
NI2712   NI        0.797711    0.167160    0.469685     0.004307
NI2713   NI        0.799209    0.201904    0.503711     0.004307
NI2714   NI        0.829585    0.171583    0.504372     0.004307
NI2715   NI        0.830388    0.200490    0.467800     0.004307
NI2716   NI        0.044379    0.237206    0.469284     0.004307
NI2717   NI        0.042660    0.270810    0.503856     0.004307
NI2718   NI        0.074470    0.235121    0.504674     0.004307
CU2719   CU        0.073878    0.270817    0.469130     0.006663
NI2720   NI        0.106815    0.235425    0.471290     0.004307
CU2721   CU        0.106758    0.271730    0.506614     0.006663
NI2722   NI        0.137800    0.232479    0.504633     0.004307
CU2723   CU        0.133575    0.272769    0.467956     0.006663
NI2724   NI        0.168819    0.237874    0.467786     0.004307
NI2725   NI        0.161843    0.271124    0.503180     0.004307
NI2726   NI        0.217498    0.243179    0.504847     0.004307
CU2727   CU        0.215484    0.278317    0.469939     0.006663
NI2728   NI        0.248039    0.246042    0.471209     0.004307
CU2729   CU        0.250085    0.278648    0.501531     0.006663
CU2730   CU        0.283537    0.244920    0.501458     0.006663
NI2731   NI        0.285009    0.280227    0.471332     0.004307
CU2732   CU        0.321243    0.245194    0.471377     0.006663
CU2733   CU        0.317823    0.279155    0.503325     0.006663
CU2734   CU        0.349674    0.244971    0.503665     0.006663
NI2735   NI        0.350606    0.279909    0.470856     0.004307
NI2736   NI        0.385226    0.245742    0.472996     0.004307
NI2737   NI        0.382472    0.276526    0.504137     0.004307
CU2738   CU        0.418317    0.243651    0.503143     0.006663
CU2739   CU        0.417838    0.276421    0.471684     0.006663
CU2740   CU        0.453459    0.244291    0.470681     0.006663
CU2741   CU        0.451135    0.275602    0.503384     0.006663
CU2742   CU        0.486177    0.245204    0.504230     0.006663
CU2743   CU        0.486452    0.278308    0.471096     0.006663
CU2744   CU        0.518771    0.243524    0.473181     0.006663
CU2745   CU        0.518266    0.278188    0.504387     0.006663
NI2746   NI        0.552584    0.245987    0.504905     0.004307
CU2747   CU        0.551706    0.278452    0.472920     0.006663
CU2748   CU        0.586467    0.249037    0.471926     0.006663
CU2749   CU        0.585896    0.280585    0.504388     0.006663
NI2750   NI        0.622217    0.246386    0.506021     0.004307
CU2751   CU        0.621681    0.281093    0.472276     0.006663
CU2752   CU        0.655375    0.246838    0.470277     0.006663
NI2753   NI        0.654963    0.279111    0.506041     0.004307
NI2754   NI        0.686177    0.243248    0.504818     0.004307
CU2755   CU        0.686147    0.278610    0.471433     0.006663
NI2756   NI        0.719029    0.248749    0.473065     0.004307
NI2757   NI        0.719557    0.282258    0.504874     0.004307
NI2758   NI        0.768783    0.233966    0.507479     0.004307
NI2759   NI        0.751394    0.281161    0.472665     0.004307
CU2760   CU        0.801390    0.235461    0.469635     0.006663
CU2761   CU        0.804578    0.269012    0.506454     0.006663
NI2762   NI        0.832650    0.234460    0.503501     0.004307
NI2763   NI        0.832067    0.269439    0.468405     0.004307
NI2764   NI        0.864860    0.235986    0.467646     0.004307
CU2765   CU        0.864228    0.269848    0.504770     0.006663
CU2766   CU        0.011642    0.305138    0.505900     0.006663
NI2767   NI        0.008573    0.336108    0.471457     0.004307
NI2768   NI        0.041447    0.302944    0.471542     0.004307
NI2769   NI        0.041337    0.339126    0.505812     0.004307
CU2770   CU        0.073172    0.307013    0.504158     0.006663
CU2771   CU        0.073218    0.338716    0.471025     0.006663
NI2772   NI        0.104446    0.306315    0.470997     0.004307
NI2773   NI        0.106914    0.341525    0.503666     0.004307
NI2774   NI        0.136006    0.309290    0.506324     0.004307
NI2775   NI        0.136074    0.339255    0.465461     0.004307
NI2776   NI        0.184098    0.314326    0.470165     0.004307
NI2777   NI        0.186672    0.347171    0.503535     0.004307
CU2778   CU        0.219112    0.314165    0.502233     0.006663
CU2779   CU        0.217816    0.347235    0.469107     0.006663
NI2780   NI        0.251508    0.312015    0.471325     0.004307
CU2781   CU        0.248653    0.347863    0.502273     0.006663
CU2782   CU        0.282543    0.313401    0.503732     0.006663
CU2783   CU        0.281825    0.348223    0.468412     0.006663
CU2784   CU        0.316868    0.312732    0.470966     0.006663
CU2785   CU        0.315557    0.345367    0.501665     0.006663
CU2786   CU        0.348942    0.313664    0.502224     0.006663
CU2787   CU        0.349606    0.346884    0.469416     0.006663
CU2788   CU        0.384776    0.309578    0.472006     0.006663
CU2789   CU        0.382973    0.347377    0.502655     0.006663
CU2790   CU        0.417524    0.309795    0.503403     0.006663
CU2791   CU        0.418477    0.345901    0.471188     0.006663
CU2792   CU        0.452150    0.310887    0.473366     0.006663
CU2793   CU        0.450068    0.344491    0.505501     0.006663
CU2794   CU        0.486596    0.310845    0.505140     0.006663
CU2795   CU        0.484995    0.347057    0.473111     0.006663
CU2796   CU        0.519347    0.312784    0.472792     0.006663
CU2797   CU        0.520304    0.347185    0.504737     0.006663
CU2798   CU        0.550585    0.310566    0.506168     0.006663
CU2799   CU        0.553016    0.346325    0.470537     0.006663
CU2800   CU        0.584810    0.311816    0.471292     0.006663
NI2801   NI        0.586430    0.347605    0.506420     0.004307
CU2802   CU        0.620829    0.312749    0.506421     0.006663
CU2803   CU        0.621891    0.347802    0.470519     0.006663
NI2804   NI        0.654435    0.313178    0.471671     0.004307
NI2805   NI        0.652308    0.346736    0.503888     0.004307
NI2806   NI        0.688120    0.314224    0.503711     0.004307
CU2807   CU        0.685407    0.347237    0.471533     0.006663
NI2808   NI        0.718416    0.313377    0.471913     0.004307
NI2809   NI        0.719839    0.348327    0.504515     0.004307
CU2810   CU        0.750945    0.315756    0.501211     0.006663
CU2811   CU        0.772951    0.340414    0.465928     0.006663
NI2812   NI        0.805799    0.309253    0.470200     0.004307
NI2813   NI        0.804262    0.344006    0.500873     0.004307
NI2814   NI        0.832174    0.306687    0.505315     0.004307
NI2815   NI        0.833876    0.344405    0.470175     0.004307
CU2816   CU        0.861526    0.307110    0.470383     0.006663
NI2817   NI        0.865232    0.340778    0.503021     0.004307
NI2818   NI        0.893995    0.306709    0.503705     0.004307
NI2819   NI        0.895729    0.339924    0.469762     0.004307
NI2820   NI        0.011407    0.370829    0.504484     0.004307
CU2821   CU        0.006447    0.413865    0.469190     0.006663
NI2822   NI        0.039746    0.375219    0.471125     0.004307
NI2823   NI        0.039314    0.411967    0.505163     0.004307
NI2824   NI        0.072006    0.374206    0.507018     0.004307
NI2825   NI        0.070170    0.412064    0.469640     0.004307
NI2826   NI        0.102039    0.377207    0.469429     0.004307
NI2827   NI        0.098100    0.412443    0.507248     0.004307
CU2828   CU        0.144563    0.374602    0.493034     0.006663
NI2829   NI        0.142386    0.410790    0.463949     0.004307
CU2830   CU        0.174250    0.373908    0.461506     0.006663
NI2831   NI        0.181239    0.406640    0.489957     0.004307
CU2832   CU        0.218169    0.381016    0.503357     0.006663
NI2833   NI        0.218797    0.415995    0.468111     0.004307
NI2834   NI        0.248063    0.381145    0.467348     0.004307
CU2835   CU        0.248390    0.413776    0.501643     0.006663
CU2836   CU        0.281546    0.380026    0.502279     0.006663
CU2837   CU        0.282644    0.416454    0.468059     0.006663
NI2838   NI        0.314666    0.380706    0.469049     0.004307
CU2839   CU        0.314846    0.411542    0.502465     0.006663
NI2840   NI        0.349160    0.380536    0.503745     0.004307
CU2841   CU        0.349569    0.412290    0.470497     0.006663
CU2842   CU        0.384112    0.384097    0.469660     0.006663
CU2843   CU        0.384508    0.414526    0.504453     0.006663
CU2844   CU        0.418137    0.376991    0.502074     0.006663
CU2845   CU        0.418382    0.413626    0.467339     0.006663
CU2846   CU        0.453205    0.378301    0.472369     0.006663
CU2847   CU        0.448834    0.412947    0.504851     0.006663
NI2848   NI        0.486021    0.382381    0.505186     0.004307
CU2849   CU        0.483550    0.412957    0.468935     0.006663
CU2850   CU        0.517839    0.378618    0.471320     0.006663
CU2851   CU        0.515810    0.414501    0.504241     0.006663
CU2852   CU        0.550026    0.382015    0.503851     0.006663
CU2853   CU        0.549278    0.413019    0.471021     0.006663
CU2854   CU        0.585190    0.380782    0.470999     0.006663
CU2855   CU        0.585833    0.412967    0.503208     0.006663
CU2856   CU        0.619352    0.381820    0.503826     0.006663
CU2857   CU        0.620508    0.416507    0.469111     0.006663
CU2858   CU        0.652361    0.381081    0.471933     0.006663
CU2859   CU        0.655190    0.412996    0.503923     0.006663
NI2860   NI        0.685829    0.379683    0.505681     0.004307
CU2861   CU        0.685101    0.412718    0.468768     0.006663
NI2862   NI        0.719113    0.380211    0.472055     0.004307
CU2863   CU        0.718674    0.411956    0.507035     0.006663
CU2864   CU        0.754428    0.380184    0.505770     0.006663
NI2865   NI        0.772704    0.413251    0.467904     0.004307
NI2866   NI        0.802737    0.376618    0.467667     0.004307
CU2867   CU        0.806673    0.409166    0.502240     0.006663
CU2868   CU        0.836469    0.375283    0.504068     0.006663
NI2869   NI        0.837097    0.411688    0.469285     0.004307
NI2870   NI        0.867225    0.377807    0.469085     0.004307
NI2871   NI        0.868257    0.409858    0.503207     0.004307
NI2872   NI        0.898216    0.375373    0.504161     0.004307
NI2873   NI        0.897752    0.410634    0.469924     0.004307
NI2874   NI        0.009178    0.446021    0.503767     0.004307
NI2875   NI        0.007571    0.480042    0.472907     0.004307
NI2876   NI        0.037617    0.445365    0.471110     0.004307
CU2877   CU        0.037450    0.482163    0.508944     0.006663
CU2878   CU        0.069568    0.447506    0.504972     0.006663
NI2879   NI        0.068985    0.480950    0.472804     0.004307
CU2880   CU        0.100307    0.448584    0.467044     0.006663
NI2881   NI        0.100432    0.479809    0.503384     0.004307
NI2882   NI        0.155602    0.439933    0.508874     0.004307
NI2883   NI        0.128697    0.484561    0.467687     0.004307
NI2884   NI        0.185678    0.447931    0.468953     0.004307
NI2885   NI        0.183576    0.477461    0.504035     0.004307
CU2886   CU        0.216812    0.445215    0.502857     0.006663
CU2887   CU        0.218330    0.480299    0.472181     0.006663
CU2888   CU        0.250664    0.447158    0.470431     0.006663
CU2889   CU        0.251596    0.479258    0.503236     0.006663
CU2890   CU        0.280780    0.444718    0.502882     0.006663
CU2891   CU        0.282043    0.481063    0.468588     0.006663
CU2892   CU        0.315449    0.448562    0.467228     0.006663
CU2893   CU        0.317328    0.480405    0.501619     0.006663
CU2894   CU        0.351856    0.449379    0.503260     0.006663
NI2895   NI        0.349605    0.480587    0.467866     0.004307
CU2896   CU        0.384375    0.447276    0.469660     0.006663
CU2897   CU        0.385171    0.481203    0.501674     0.006663
CU2898   CU        0.416939    0.447113    0.502667     0.006663
CU2899   CU        0.415855    0.480439    0.469396     0.006663
CU2900   CU        0.450527    0.444980    0.468357     0.006663
CU2901   CU        0.450978    0.481674    0.501208     0.006663
CU2902   CU        0.482406    0.447471    0.502198     0.006663
CU2903   CU        0.482458    0.480232    0.467031     0.006663
CU2904   CU        0.515954    0.446773    0.470672     0.006663
CU2905   CU        0.518063    0.479416    0.501618     0.006663
CU2906   CU        0.550784    0.448409    0.502759     0.006663
CU2907   CU        0.551709    0.481378    0.470542     0.006663
CU2908   CU        0.584213    0.445930    0.471351     0.006663
CU2909   CU        0.585645    0.481334    0.503573     0.006663
CU2910   CU        0.618337    0.449480    0.502642     0.006663
CU2911   CU        0.617270    0.481953    0.470695     0.006663
CU2912   CU        0.654496    0.445230    0.472069     0.006663
CU2913   CU        0.653413    0.479449    0.504159     0.006663
CU2914   CU        0.686214    0.444999    0.506087     0.006663
CU2915   CU        0.688169    0.478885    0.470451     0.006663
NI2916   NI        0.717463    0.444207    0.471917     0.004307
CU2917   CU        0.720550    0.479316    0.503791     0.006663
NI2918   NI        0.754950    0.444206    0.505725     0.004307
CU2919   CU        0.751002    0.478959    0.471876     0.006663
NI2920   NI        0.806488    0.445200    0.469510     0.004307
NI2921   NI        0.807954    0.481747    0.501792     0.004307
NI2922   NI        0.838352    0.447120    0.504854     0.004307
NI2923   NI        0.837603    0.481948    0.469341     0.004307
NI2924   NI        0.868446    0.447432    0.468200     0.004307
NI2925   NI        0.868644    0.481218    0.504137     0.004307
NI2926   NI        0.901227    0.448039    0.502378     0.004307
NI2927   NI        0.900866    0.480296    0.469608     0.004307
NI2928   NI        0.000667    0.515304    0.511773     0.004307
NI2929   NI        0.013903    0.557229    0.468171     0.004307
CU2930   CU        0.033173    0.515809    0.472297     0.006663
NI2931   NI        0.034302    0.545977    0.506238     0.004307
NI2932   NI        0.068283    0.512040    0.507372     0.004307
NI2933   NI        0.064118    0.548186    0.472397     0.004307
NI2934   NI        0.096153    0.516752    0.469848     0.004307
NI2935   NI        0.097255    0.549630    0.508346     0.004307
NI2936   NI        0.154809    0.513937    0.504717     0.004307
NI2937   NI        0.155721    0.547272    0.473302     0.004307
NI2938   NI        0.186455    0.512507    0.470866     0.004307
NI2939   NI        0.189003    0.546824    0.504827     0.004307
CU2940   CU        0.218999    0.513676    0.504501     0.006663
NI2941   NI        0.218609    0.548287    0.469408     0.004307
CU2942   CU        0.249969    0.514251    0.470066     0.006663
CU2943   CU        0.251087    0.547673    0.505015     0.006663
CU2944   CU        0.284244    0.511894    0.504487     0.006663
CU2945   CU        0.283318    0.547202    0.469889     0.006663
CU2946   CU        0.316073    0.514177    0.472300     0.006663
CU2947   CU        0.318783    0.545960    0.503124     0.006663
CU2948   CU        0.352419    0.514468    0.502549     0.006663
CU2949   CU        0.351805    0.547635    0.466926     0.006663
CU2950   CU        0.385443    0.514706    0.469142     0.006663
CU2951   CU        0.384133    0.549967    0.503337     0.006663
NI2952   NI        0.417165    0.514915    0.503818     0.004307
CU2953   CU        0.418625    0.549305    0.469677     0.006663
CU2954   CU        0.452827    0.515411    0.469560     0.006663
CU2955   CU        0.451461    0.548723    0.502759     0.006663
CU2956   CU        0.484951    0.513598    0.500675     0.006663
CU2957   CU        0.486608    0.547416    0.469095     0.006663
CU2958   CU        0.517352    0.513151    0.468488     0.006663
CU2959   CU        0.518946    0.544738    0.503462     0.006663
CU2960   CU        0.551217    0.512905    0.504616     0.006663
CU2961   CU        0.549971    0.545973    0.469625     0.006663
CU2962   CU        0.583541    0.514374    0.469991     0.006663
CU2963   CU        0.586136    0.546059    0.503086     0.006663
CU2964   CU        0.620940    0.514348    0.505105     0.006663
NI2965   NI        0.622048    0.547010    0.470035     0.004307
CU2966   CU        0.654380    0.509481    0.469774     0.006663
CU2967   CU        0.653874    0.545590    0.504300     0.006663
CU2968   CU        0.688027    0.512729    0.504900     0.006663
CU2969   CU        0.687454    0.545850    0.472049     0.006663
CU2970   CU        0.720632    0.512949    0.472918     0.006663
NI2971   NI        0.721675    0.546742    0.505040     0.004307
NI2972   NI        0.753107    0.511836    0.504691     0.004307
NI2973   NI        0.749667    0.548327    0.471596     0.004307
NI2974   NI        0.808067    0.518938    0.473029     0.004307
NI2975   NI        0.808290    0.551440    0.505364     0.004307
NI2976   NI        0.837470    0.517318    0.504990     0.004307
NI2977   NI        0.841994    0.548814    0.473290     0.004307
CU2978   CU        0.871578    0.515995    0.472408     0.006663
CU2979   CU        0.870426    0.551679    0.508035     0.006663
NI2980   NI        0.900391    0.516158    0.507121     0.004307
NI2981   NI        0.890351    0.558469    0.467759     0.004307
NI2982   NI        0.015774    0.587057    0.502453     0.004307
NI2983   NI        0.043631    0.589363    0.465699     0.004307
NI2984   NI        0.039482    0.619696    0.517716     0.004307
CU2985   CU        0.062694    0.580249    0.506826     0.006663
NI2986   NI        0.072869    0.623810    0.465948     0.004307
NI2987   NI        0.092125    0.581554    0.472388     0.004307
CU2988   CU        0.107160    0.620371    0.494256     0.006663
NI2989   NI        0.155178    0.575991    0.509226     0.004307
NI2990   NI        0.137325    0.624935    0.463378     0.004307
NI2991   NI        0.186447    0.580838    0.472755     0.004307
CU2992   CU        0.184303    0.612085    0.506515     0.006663
CU2993   CU        0.219480    0.581140    0.505810     0.006663
NI2994   NI        0.217157    0.612435    0.474551     0.004307
CU2995   CU        0.250863    0.580402    0.470730     0.006663
CU2996   CU        0.250953    0.614675    0.503674     0.006663
NI2997   NI        0.283783    0.581631    0.505980     0.004307
CU2998   CU        0.284702    0.612097    0.469443     0.006663
CU2999   CU        0.319057    0.581890    0.468643     0.006663
CU3000   CU        0.316390    0.613891    0.506068     0.006663
CU3001   CU        0.352780    0.581901    0.501879     0.006663
CU3002   CU        0.351323    0.616635    0.470027     0.006663
CU3003   CU        0.386491    0.580913    0.468480     0.006663
CU3004   CU        0.386336    0.611419    0.503765     0.006663
CU3005   CU        0.420622    0.581798    0.501950     0.006663
NI3006   NI        0.419985    0.615256    0.469896     0.004307
CU3007   CU        0.452554    0.581821    0.468049     0.006663
CU3008   CU        0.453467    0.615086    0.504511     0.006663
CU3009   CU        0.487342    0.582226    0.502530     0.006663
CU3010   CU        0.484923    0.615806    0.469731     0.006663
CU3011   CU        0.518559    0.579129    0.467350     0.006663
CU3012   CU        0.519221    0.615242    0.502438     0.006663
CU3013   CU        0.550239    0.580037    0.503883     0.006663
CU3014   CU        0.552427    0.611530    0.469209     0.006663
NI3015   NI        0.587952    0.579446    0.471056     0.004307
CU3016   CU        0.583322    0.612098    0.503640     0.006663
CU3017   CU        0.618895    0.580064    0.504323     0.006663
CU3018   CU        0.620077    0.613745    0.472744     0.006663
CU3019   CU        0.652518    0.580719    0.470416     0.006663
CU3020   CU        0.651714    0.613156    0.505702     0.006663
NI3021   NI        0.684464    0.579722    0.505155     0.004307
CU3022   CU        0.686540    0.612349    0.471910     0.006663
NI3023   NI        0.719053    0.581975    0.470556     0.004307
NI3024   NI        0.718213    0.612809    0.505133     0.004307
NI3025   NI        0.751367    0.580581    0.504409     0.004307
NI3026   NI        0.752730    0.614024    0.470520     0.004307
CU3027   CU        0.811568    0.583435    0.473466     0.006663
NI3028   NI        0.809790    0.621505    0.506214     0.004307
NI3029   NI        0.838786    0.585233    0.508432     0.004307
NI3030   NI        0.830562    0.623979    0.466514     0.004307
NI3031   NI        0.861329    0.592605    0.467983     0.004307
CU3032   CU        0.858158    0.626531    0.502541     0.006663
NI3033   NI        0.888163    0.592797    0.504437     0.004307
NI3034   NI        0.044510    0.659116    0.466257     0.004307
NI3035   NI        0.072332    0.648277    0.503905     0.004307
NI3036   NI        0.074327    0.693888    0.467143     0.004307
NI3037   NI        0.104958    0.657986    0.465948     0.004307
NI3038   NI        0.127027    0.678103    0.506455     0.004307
NI3039   NI        0.147636    0.640853    0.509858     0.004307
CU3040   CU        0.139276    0.695264    0.467736     0.006663
NI3041   NI        0.179839    0.645930    0.473568     0.004307
NI3042   NI        0.170762    0.696381    0.503366     0.004307
NI3043   NI        0.218291    0.645394    0.503874     0.004307
NI3044   NI        0.204470    0.695055    0.467683     0.004307
NI3045   NI        0.250515    0.646674    0.471475     0.004307
NI3046   NI        0.248406    0.679376    0.506032     0.004307
NI3047   NI        0.285806    0.647162    0.503372     0.004307
NI3048   NI        0.286424    0.680069    0.468682     0.004307
CU3049   CU        0.317807    0.646999    0.469977     0.006663
CU3050   CU        0.316858    0.681166    0.502365     0.006663
CU3051   CU        0.350712    0.649728    0.503443     0.006663
CU3052   CU        0.353358    0.681531    0.470409     0.006663
CU3053   CU        0.384963    0.647511    0.471704     0.006663
CU3054   CU        0.384801    0.683335    0.504963     0.006663
CU3055   CU        0.418792    0.648178    0.503550     0.006663
NI3056   NI        0.421272    0.681114    0.470723     0.004307
NI3057   NI        0.451783    0.647893    0.471649     0.004307
NI3058   NI        0.452981    0.683071    0.504534     0.004307
CU3059   CU        0.487914    0.650095    0.504138     0.006663
CU3060   CU        0.487187    0.679684    0.469658     0.006663
CU3061   CU        0.519603    0.647767    0.468936     0.006663
CU3062   CU        0.520542    0.679711    0.501955     0.006663
NI3063   NI        0.553220    0.646655    0.502056     0.004307
CU3064   CU        0.554393    0.680475    0.470304     0.006663
CU3065   CU        0.588432    0.647626    0.469666     0.006663
NI3066   NI        0.585256    0.680572    0.503908     0.004307
CU3067   CU        0.621339    0.645720    0.504616     0.006663
NI3068   NI        0.620278    0.680376    0.472813     0.004307
NI3069   NI        0.651772    0.646078    0.472678     0.004307
NI3070   NI        0.654649    0.679573    0.504850     0.004307
CU3071   CU        0.685451    0.645534    0.504010     0.006663
CU3072   CU        0.702427    0.695097    0.467255     0.006663
NI3073   NI        0.718653    0.648193    0.474052     0.004307
NI3074   NI        0.733630    0.697392    0.506060     0.004307
NI3075   NI        0.752951    0.645769    0.503798     0.004307
NI3076   NI        0.753229    0.678049    0.472518     0.004307
NI3077   NI        0.783818    0.646573    0.470337     0.004307
NI3078   NI        0.800261    0.695631    0.506296     0.004307
NI3079   NI        0.831474    0.662665    0.509845     0.004307
NI3080   NI        0.830959    0.694129    0.471838     0.004307
NI3081   NI        0.860094    0.656158    0.468507     0.004307
NI3082   NI        0.075624    0.726029    0.504345     0.004307
NI3083   NI        0.107957    0.729860    0.468519     0.004307
NI3084   NI        0.108984    0.760200    0.506559     0.004307
NI3085   NI        0.138679    0.727735    0.505339     0.004307
NI3086   NI        0.139613    0.761920    0.469322     0.004307
CU3087   CU        0.170721    0.726317    0.470008     0.006663
NI3088   NI        0.174439    0.759065    0.507467     0.004307
NI3089   NI        0.203689    0.727851    0.502461     0.004307
CU3090   CU        0.205386    0.760042    0.469770     0.006663
CU3091   CU        0.235219    0.727255    0.468262     0.006663
NI3092   NI        0.241563    0.760722    0.502183     0.004307
NI3093   NI        0.283041    0.710088    0.505446     0.004307
NI3094   NI        0.276066    0.763376    0.471241     0.004307
CU3095   CU        0.317400    0.714603    0.470110     0.006663
NI3096   NI        0.308914    0.767458    0.507938     0.004307
NI3097   NI        0.351356    0.713100    0.502731     0.004307
NI3098   NI        0.349012    0.745690    0.467331     0.004307
NI3099   NI        0.386138    0.715390    0.469865     0.004307
NI3100   NI        0.384472    0.745191    0.504240     0.004307
CU3101   CU        0.419128    0.715849    0.504684     0.006663
NI3102   NI        0.420245    0.746819    0.467289     0.004307
NI3103   NI        0.451914    0.713952    0.468518     0.004307
NI3104   NI        0.452832    0.767707    0.504131     0.004307
CU3105   CU        0.488106    0.711249    0.503531     0.006663
NI3106   NI        0.488281    0.744633    0.471923     0.004307
CU3107   CU        0.520682    0.712153    0.469663     0.006663
NI3108   NI        0.519504    0.745755    0.504214     0.004307
CU3109   CU        0.552309    0.714485    0.503231     0.006663
NI3110   NI        0.557027    0.767429    0.467214     0.004307
NI3111   NI        0.587787    0.714188    0.467753     0.004307
NI3112   NI        0.592486    0.766305    0.502057     0.004307
NI3113   NI        0.622647    0.714307    0.503129     0.004307
NI3114   NI        0.624291    0.766556    0.468629     0.004307
NI3115   NI        0.658507    0.711068    0.471082     0.004307
NI3116   NI        0.663053    0.761241    0.504964     0.004307
NI3117   NI        0.699798    0.729854    0.501936     0.004307
NI3118   NI        0.697309    0.761294    0.468800     0.004307
CU3119   CU        0.733043    0.726599    0.467374     0.006663
CU3120   CU        0.731957    0.761481    0.501605     0.006663
NI3121   NI        0.764961    0.730011    0.502942     0.004307
NI3122   NI        0.764606    0.760313    0.465905     0.004307
NI3123   NI        0.797193    0.726111    0.469154     0.004307
NI3124   NI        0.796829    0.761744    0.501861     0.004307
NI3125   NI        0.829400    0.729756    0.501247     0.004307
NI3126   NI        0.143228    0.793027    0.505378     0.004307
CU3127   CU        0.173598    0.791992    0.468888     0.006663
NI3128   NI        0.174898    0.822766    0.506565     0.004307
NI3129   NI        0.208108    0.791996    0.503992     0.004307
NI3130   NI        0.205271    0.826117    0.469227     0.004307
CU3131   CU        0.240935    0.792347    0.468312     0.006663
NI3132   NI        0.241108    0.824414    0.503348     0.004307
NI3133   NI        0.277203    0.797110    0.503242     0.004307
NI3134   NI        0.274887    0.825309    0.468959     0.004307
NI3135   NI        0.310673    0.795146    0.470775     0.004307
NI3136   NI        0.311270    0.827447    0.504125     0.004307
NI3137   NI        0.345224    0.797884    0.505697     0.004307
CU3138   CU        0.344163    0.828155    0.471575     0.006663
CU3139   CU        0.380103    0.799885    0.469380     0.006663
NI3140   NI        0.380910    0.829840    0.503550     0.004307
NI3141   NI        0.417596    0.800094    0.501757     0.004307
NI3142   NI        0.416598    0.829662    0.469114     0.004307
NI3143   NI        0.453753    0.799930    0.469497     0.004307
NI3144   NI        0.451605    0.830146    0.504161     0.004307
NI3145   NI        0.486753    0.798687    0.505262     0.004307
NI3146   NI        0.486622    0.829873    0.468907     0.004307
NI3147   NI        0.519508    0.799714    0.467193     0.004307
NI3148   NI        0.521910    0.826835    0.503832     0.004307
NI3149   NI        0.557154    0.798494    0.503502     0.004307
CU3150   CU        0.558289    0.826953    0.469800     0.006663
NI3151   NI        0.591884    0.797469    0.469397     0.004307
NI3152   NI        0.593159    0.826347    0.505672     0.004307
NI3153   NI        0.628328    0.795220    0.505315     0.004307
CU3154   CU        0.627494    0.826729    0.470814     0.006663
NI3155   NI        0.661759    0.793093    0.467077     0.004307
NI3156   NI        0.661363    0.826809    0.503016     0.004307
NI3157   NI        0.695595    0.792584    0.501459     0.004307
NI3158   NI        0.694061    0.824434    0.469124     0.004307
NI3159   NI        0.728505    0.793791    0.466802     0.004307
NI3160   NI        0.728142    0.824900    0.501750     0.004307
CU3161   CU        0.759965    0.794385    0.500052     0.006663
NI3162   NI        0.241526    0.856053    0.469073     0.004307
CU3163   CU        0.275021    0.857728    0.503153     0.006663
NI3164   NI        0.308323    0.858326    0.469058     0.004307
NI3165   NI        0.308691    0.887518    0.502266     0.004307
CU3166   CU        0.345701    0.858491    0.504700     0.006663
NI3167   NI        0.345738    0.889449    0.469654     0.004307
NI3168   NI        0.382988    0.861140    0.469406     0.004307
NI3169   NI        0.380557    0.891457    0.504694     0.004307
CU3170   CU        0.416985    0.862831    0.505145     0.006663
NI3171   NI        0.416667    0.890556    0.472189     0.004307
CU3172   CU        0.451782    0.860301    0.469666     0.006663
NI3173   NI        0.452914    0.890859    0.505228     0.004307
NI3174   NI        0.486605    0.860346    0.503363     0.004307
NI3175   NI        0.489998    0.890730    0.468086     0.004307
NI3176   NI        0.522245    0.857315    0.469181     0.004307
CU3177   CU        0.523203    0.889346    0.504177     0.006663
NI3178   NI        0.558021    0.856674    0.505465     0.004307
NI3179   NI        0.559520    0.889294    0.470615     0.004307
NI3180   NI        0.592624    0.857123    0.468601     0.004307
NI3181   NI        0.589815    0.887130    0.503004     0.004307
CU3182   CU        0.627308    0.858063    0.504743     0.006663
NI3183   NI        0.660544    0.857878    0.469781     0.004307
NI3184   NI        0.343043    0.008008    0.542425     0.004307
NI3185   NI        0.382430    0.006797    0.576861     0.004307
NI3186   NI        0.417595    0.005812    0.546417     0.004307
NI3187   NI        0.452617    0.006192    0.578657     0.004307
NI3188   NI        0.487259    0.005292    0.542976     0.004307
NI3189   NI        0.521059    0.004258    0.575175     0.004307
NI3190   NI        0.561778    0.005155    0.539583     0.004307
NI3191   NI        0.209775    0.068703    0.538669     0.004307
NI3192   NI        0.243742    0.035299    0.538681     0.004307
CU3193   CU        0.243322    0.067407    0.573805     0.006663
NI3194   NI        0.275754    0.037334    0.571865     0.004307
CU3195   CU        0.276059    0.067160    0.539460     0.006663
CU3196   CU        0.310527    0.036897    0.539187     0.006663
NI3197   NI        0.313343    0.065173    0.574749     0.004307
NI3198   NI        0.348061    0.036182    0.576030     0.004307
CU3199   CU        0.345642    0.066058    0.538816     0.006663
NI3200   NI        0.381574    0.035530    0.544108     0.004307
CU3201   CU        0.380838    0.068292    0.579720     0.006663
CU3202   CU        0.416473    0.036425    0.576792     0.006663
CU3203   CU        0.419110    0.063488    0.539130     0.006663
NI3204   NI        0.452811    0.034469    0.539233     0.004307
NI3205   NI        0.452669    0.064969    0.575245     0.004307
NI3206   NI        0.487542    0.034659    0.575118     0.004307
NI3207   NI        0.488478    0.063715    0.542050     0.004307
CU3208   CU        0.523964    0.035409    0.541177     0.006663
CU3209   CU        0.523614    0.065277    0.574523     0.006663
NI3210   NI        0.556811    0.035605    0.575594     0.004307
CU3211   CU        0.557346    0.065726    0.543503     0.006663
NI3212   NI        0.595717    0.035472    0.538471     0.004307
NI3213   NI        0.591684    0.066193    0.578286     0.004307
NI3214   NI        0.630974    0.035686    0.575232     0.004307
NI3215   NI        0.628735    0.066549    0.543457     0.004307
NI3216   NI        0.662498    0.036177    0.540241     0.004307
NI3217   NI        0.663048    0.066370    0.578892     0.004307
NI3218   NI        0.693160    0.068704    0.544939     0.004307
CU3219   CU        0.107275    0.134971    0.572237     0.006663
NI3220   NI        0.140566    0.100913    0.573403     0.004307
NI3221   NI        0.140708    0.133776    0.539156     0.004307
NI3222   NI        0.175098    0.101690    0.540591     0.004307
NI3223   NI        0.174052    0.132689    0.574416     0.004307
CU3224   CU        0.207554    0.098931    0.575676     0.006663
NI3225   NI        0.207810    0.132972    0.541235     0.004307
NI3226   NI        0.241454    0.101536    0.538275     0.004307
NI3227   NI        0.239357    0.131729    0.578852     0.004307
NI3228   NI        0.277251    0.098425    0.576702     0.004307
NI3229   NI        0.282350    0.147492    0.535476     0.004307
NI3230   NI        0.313509    0.099404    0.540894     0.004307
CU3231   CU        0.310548    0.131911    0.580533     0.006663
NI3232   NI        0.342274    0.100077    0.578258     0.004307
NI3233   NI        0.350530    0.147471    0.535212     0.004307
CU3234   CU        0.383060    0.093436    0.540663     0.006663
NI3235   NI        0.379743    0.123565    0.577799     0.004307
NI3236   NI        0.416214    0.097280    0.573686     0.004307
NI3237   NI        0.416958    0.126338    0.538900     0.004307
NI3238   NI        0.452363    0.094402    0.538237     0.004307
NI3239   NI        0.449706    0.149556    0.570407     0.004307
NI3240   NI        0.486989    0.094982    0.575307     0.004307
CU3241   CU        0.488691    0.126487    0.540192     0.006663
NI3242   NI        0.524629    0.098383    0.542492     0.004307
NI3243   NI        0.522321    0.127134    0.577956     0.004307
CU3244   CU        0.557483    0.097662    0.579128     0.006663
CU3245   CU        0.558131    0.127945    0.543663     0.006663
CU3246   CU        0.591034    0.097924    0.545962     0.006663
NI3247   NI        0.593897    0.129726    0.577030     0.004307
NI3248   NI        0.629720    0.098497    0.576871     0.004307
NI3249   NI        0.626556    0.129263    0.540192     0.004307
CU3250   CU        0.662178    0.098834    0.538825     0.006663
NI3251   NI        0.665573    0.130462    0.575804     0.004307
NI3252   NI        0.695519    0.100221    0.575801     0.004307
NI3253   NI        0.695656    0.131288    0.537870     0.004307
NI3254   NI        0.732358    0.102501    0.541553     0.004307
NI3255   NI        0.731469    0.135857    0.572522     0.004307
NI3256   NI        0.767416    0.104952    0.571278     0.004307
NI3257   NI        0.765482    0.137451    0.539587     0.004307
NI3258   NI        0.797782    0.137200    0.574090     0.004307
NI3259   NI        0.075933    0.201899    0.538025     0.004307
NI3260   NI        0.109124    0.166991    0.538166     0.004307
CU3261   CU        0.103191    0.200620    0.576269     0.006663
NI3262   NI        0.138574    0.167036    0.574322     0.004307
NI3263   NI        0.137845    0.201172    0.541185     0.004307
CU3264   CU        0.173728    0.163279    0.539973     0.006663
NI3265   NI        0.171872    0.199712    0.574482     0.004307
NI3266   NI        0.208183    0.166677    0.576321     0.004307
NI3267   NI        0.203954    0.197260    0.540252     0.004307
NI3268   NI        0.238803    0.166298    0.542631     0.004307
NI3269   NI        0.241357    0.198445    0.575165     0.004307
NI3270   NI        0.273637    0.162426    0.578101     0.004307
CU3271   CU        0.283426    0.214238    0.534973     0.006663
CU3272   CU        0.315397    0.179913    0.535170     0.006663
NI3273   NI        0.319176    0.211800    0.568653     0.004307
NI3274   NI        0.349547    0.179375    0.569717     0.004307
CU3275   CU        0.351277    0.211848    0.537414     0.006663
NI3276   NI        0.383652    0.179157    0.537051     0.004307
NI3277   NI        0.383438    0.211608    0.571848     0.004307
NI3278   NI        0.418699    0.181610    0.570875     0.004307
CU3279   CU        0.417481    0.213296    0.537669     0.006663
NI3280   NI        0.453223    0.180259    0.537749     0.004307
CU3281   CU        0.451581    0.213111    0.571037     0.006663
NI3282   NI        0.484491    0.178327    0.574909     0.004307
CU3283   CU        0.487281    0.210884    0.540213     0.006663
NI3284   NI        0.518680    0.179285    0.542839     0.004307
CU3285   CU        0.519476    0.211791    0.573359     0.006663
NI3286   NI        0.556379    0.181121    0.571826     0.004307
NI3287   NI        0.552221    0.213269    0.538902     0.004307
NI3288   NI        0.588748    0.160784    0.542553     0.004307
CU3289   CU        0.586704    0.215130    0.572896     0.006663
NI3290   NI        0.627086    0.161850    0.574518     0.004307
NI3291   NI        0.620206    0.214923    0.539110     0.004307
CU3292   CU        0.661676    0.160117    0.540717     0.006663
NI3293   NI        0.655418    0.211298    0.572805     0.004307
NI3294   NI        0.685920    0.179625    0.573919     0.004307
NI3295   NI        0.692139    0.212700    0.543321     0.004307
CU3296   CU        0.733323    0.168183    0.536571     0.006663
NI3297   NI        0.721505    0.212470    0.579419     0.004307
NI3298   NI        0.767788    0.171367    0.573901     0.004307
NI3299   NI        0.767451    0.201578    0.538701     0.004307
NI3300   NI        0.797342    0.165920    0.538203     0.004307
CU3301   CU        0.800429    0.202624    0.573118     0.006663
NI3302   NI        0.829576    0.201117    0.537171     0.004307
NI3303   NI        0.044364    0.236433    0.538174     0.004307
NI3304   NI        0.044638    0.269177    0.571670     0.004307
NI3305   NI        0.073896    0.234191    0.574150     0.004307
NI3306   NI        0.073487    0.271155    0.538809     0.004307
NI3307   NI        0.105263    0.234282    0.540481     0.004307
CU3308   CU        0.103302    0.269544    0.572948     0.006663
CU3309   CU        0.136939    0.234071    0.575433     0.006663
CU3310   CU        0.137251    0.268007    0.542186     0.006663
NI3311   NI        0.169910    0.231798    0.540597     0.004307
NI3312   NI        0.169113    0.263200    0.573908     0.004307
CU3313   CU        0.205682    0.230030    0.574557     0.006663
NI3314   NI        0.219305    0.279668    0.537060     0.004307
CU3315   CU        0.251426    0.245100    0.536014     0.006663
NI3316   NI        0.253034    0.280601    0.569465     0.004307
NI3317   NI        0.272855    0.236132    0.576326     0.004307
CU3318   CU        0.282402    0.279317    0.536902     0.006663
NI3319   NI        0.319295    0.246541    0.534998     0.004307
CU3320   CU        0.317294    0.282730    0.569805     0.006663
CU3321   CU        0.351382    0.244732    0.571344     0.006663
CU3322   CU        0.352395    0.276826    0.539522     0.006663
CU3323   CU        0.384566    0.244806    0.540550     0.006663
CU3324   CU        0.383955    0.279491    0.569584     0.006663
CU3325   CU        0.417294    0.245798    0.570932     0.006663
CU3326   CU        0.416829    0.277170    0.535504     0.006663
CU3327   CU        0.450266    0.243319    0.538245     0.006663
CU3328   CU        0.452483    0.275712    0.568265     0.006663
CU3329   CU        0.485225    0.244421    0.571808     0.006663
CU3330   CU        0.486390    0.277031    0.536923     0.006663
CU3331   CU        0.519191    0.243664    0.538641     0.006663
CU3332   CU        0.519955    0.280045    0.570554     0.006663
CU3333   CU        0.551539    0.245083    0.572622     0.006663
CU3334   CU        0.551571    0.278560    0.536975     0.006663
CU3335   CU        0.585626    0.246650    0.536714     0.006663
NI3336   NI        0.584654    0.277389    0.572740     0.004307
CU3337   CU        0.621525    0.245136    0.571945     0.006663
CU3338   CU        0.619927    0.276904    0.538698     0.006663
CU3339   CU        0.656980    0.246177    0.541287     0.006663
NI3340   NI        0.654023    0.279012    0.571955     0.004307
CU3341   CU        0.688290    0.246464    0.573929     0.006663
NI3342   NI        0.687671    0.279871    0.539989     0.004307
NI3343   NI        0.736371    0.231594    0.538142     0.004307
NI3344   NI        0.722430    0.280916    0.575240     0.004307
NI3345   NI        0.768196    0.235862    0.572963     0.004307
NI3346   NI        0.771174    0.267872    0.538885     0.004307
NI3347   NI        0.801852    0.236701    0.540345     0.004307
CU3348   CU        0.802539    0.269444    0.573776     0.006663
NI3349   NI        0.834114    0.236463    0.572445     0.004307
NI3350   NI        0.835171    0.269998    0.540023     0.004307
CU3351   CU        0.863328    0.234816    0.534998     0.006663
NI3352   NI        0.864563    0.269639    0.577767     0.004307
NI3353   NI        0.007698    0.338512    0.541202     0.004307
NI3354   NI        0.042055    0.303603    0.538827     0.004307
NI3355   NI        0.039259    0.342083    0.575691     0.004307
NI3356   NI        0.069854    0.306535    0.575057     0.004307
CU3357   CU        0.071633    0.339123    0.538538     0.006663
NI3358   NI        0.104531    0.304460    0.540692     0.004307
NI3359   NI        0.099725    0.340334    0.576110     0.004307
NI3360   NI        0.134633    0.304015    0.576963     0.004307
NI3361   NI        0.129986    0.338774    0.542273     0.004307
NI3362   NI        0.187820    0.314258    0.534566     0.004307
NI3363   NI        0.185693    0.348112    0.568567     0.004307
NI3364   NI        0.218829    0.313744    0.569803     0.004307
NI3365   NI        0.217267    0.347990    0.535102     0.004307
NI3366   NI        0.251597    0.313671    0.535892     0.004307
CU3367   CU        0.249742    0.345799    0.574653     0.006663
NI3368   NI        0.281640    0.313085    0.570283     0.004307
CU3369   CU        0.284173    0.347570    0.534853     0.006663
CU3370   CU        0.314179    0.314975    0.535921     0.006663
CU3371   CU        0.312743    0.345435    0.571140     0.006663
CU3372   CU        0.352340    0.312423    0.568753     0.006663
CU3373   CU        0.349365    0.347312    0.537754     0.006663
CU3374   CU        0.383194    0.312612    0.534185     0.006663
NI3375   NI        0.384453    0.347783    0.571358     0.004307
CU3376   CU        0.417825    0.311106    0.569134     0.006663
CU3377   CU        0.415963    0.345565    0.536691     0.006663
CU3378   CU        0.452292    0.310016    0.536901     0.006663
CU3379   CU        0.449992    0.345379    0.568576     0.006663
CU3380   CU        0.483728    0.309917    0.572385     0.006663
CU3381   CU        0.484717    0.345709    0.537560     0.006663
CU3382   CU        0.517588    0.312730    0.538428     0.006663
CU3383   CU        0.518731    0.347182    0.570863     0.006663
CU3384   CU        0.550703    0.313280    0.571571     0.006663
NI3385   NI        0.552867    0.345721    0.537099     0.004307
NI3386   NI        0.586068    0.312509    0.537771     0.004307
CU3387   CU        0.585492    0.346833    0.570911     0.006663
CU3388   CU        0.622452    0.314246    0.569326     0.006663
CU3389   CU        0.620330    0.347022    0.539041     0.006663
CU3390   CU        0.654790    0.314460    0.537571     0.006663
CU3391   CU        0.658359    0.346584    0.571781     0.006663
NI3392   NI        0.688726    0.311585    0.572147     0.004307
CU3393   CU        0.690065    0.346309    0.537890     0.006663
CU3394   CU        0.721771    0.312696    0.537481     0.006663
NI3395   NI        0.723557    0.343899    0.573314     0.004307
NI3396   NI        0.761663    0.309967    0.583933     0.004307
NI3397   NI        0.752543    0.346170    0.535122     0.004307
NI3398   NI        0.806172    0.301605    0.542389     0.004307
NI3399   NI        0.796636    0.337564    0.579771     0.004307
CU3400   CU        0.834756    0.307205    0.576276     0.006663
NI3401   NI        0.834513    0.340924    0.538358     0.004307
NI3402   NI        0.866016    0.307391    0.539662     0.004307
NI3403   NI        0.869167    0.340570    0.567711     0.004307
NI3404   NI        0.898456    0.341445    0.533276     0.004307
NI3405   NI        0.007789    0.375696    0.575822     0.004307
NI3406   NI        0.007997    0.409180    0.541980     0.004307
CU3407   CU        0.039443    0.373872    0.538709     0.006663
NI3408   NI        0.040546    0.408699    0.572626     0.004307
NI3409   NI        0.070568    0.373831    0.573723     0.004307
CU3410   CU        0.069309    0.412401    0.539927     0.006663
CU3411   CU        0.101709    0.377181    0.539541     0.006663
NI3412   NI        0.096493    0.410387    0.575978     0.004307
NI3413   NI        0.129344    0.375773    0.576533     0.004307
NI3414   NI        0.129909    0.412654    0.543159     0.004307
CU3415   CU        0.188546    0.381134    0.534068     0.006663
NI3416   NI        0.187408    0.411510    0.570533     0.004307
NI3417   NI        0.216313    0.379758    0.570765     0.004307
CU3418   CU        0.219947    0.414399    0.538384     0.006663
CU3419   CU        0.252005    0.378184    0.537983     0.006663
CU3420   CU        0.250107    0.413098    0.570891     0.006663
NI3421   NI        0.283089    0.380057    0.572223     0.004307
CU3422   CU        0.283064    0.413318    0.537674     0.006663
CU3423   CU        0.314057    0.379422    0.536868     0.006663
CU3424   CU        0.315984    0.414616    0.570261     0.006663
CU3425   CU        0.349790    0.381061    0.569945     0.006663
CU3426   CU        0.350443    0.411169    0.536461     0.006663
CU3427   CU        0.382389    0.379253    0.534632     0.006663
CU3428   CU        0.383441    0.414741    0.569747     0.006663
CU3429   CU        0.417700    0.378821    0.569050     0.006663
CU3430   CU        0.416160    0.412981    0.536411     0.006663
CU3431   CU        0.451465    0.378287    0.535703     0.006663
CU3432   CU        0.451112    0.411923    0.568622     0.006663
CU3433   CU        0.484787    0.378811    0.569377     0.006663
CU3434   CU        0.485496    0.415523    0.537528     0.006663
CU3435   CU        0.519200    0.382169    0.537524     0.006663
NI3436   NI        0.520086    0.413644    0.570331     0.004307
CU3437   CU        0.552212    0.379492    0.570427     0.006663
CU3438   CU        0.551181    0.415516    0.536384     0.006663
NI3439   NI        0.585059    0.380648    0.539603     0.004307
CU3440   CU        0.586054    0.413507    0.570865     0.006663
NI3441   NI        0.620753    0.380488    0.569931     0.004307
CU3442   CU        0.618568    0.413102    0.538151     0.006663
CU3443   CU        0.653839    0.379777    0.538301     0.006663
CU3444   CU        0.655134    0.411371    0.571046     0.006663
NI3445   NI        0.690598    0.379846    0.572706     0.004307
CU3446   CU        0.688281    0.411249    0.538684     0.006663
CU3447   CU        0.721356    0.379913    0.538207     0.006663
NI3448   NI        0.721155    0.413896    0.571744     0.004307
NI3449   NI        0.753867    0.378397    0.573527     0.004307
NI3450   NI        0.752851    0.412364    0.538525     0.004307
NI3451   NI        0.807862    0.380693    0.538170     0.004307
NI3452   NI        0.807481    0.410545    0.573991     0.004307
NI3453   NI        0.840920    0.378941    0.572704     0.004307
CU3454   CU        0.837039    0.412753    0.539020     0.006663
NI3455   NI        0.867385    0.377847    0.537291     0.004307
NI3456   NI        0.871422    0.413033    0.569793     0.004307
NI3457   NI        0.900695    0.375862    0.568017     0.004307
NI3458   NI        0.899555    0.413252    0.535246     0.004307
NI3459   NI        0.010501    0.443717    0.576740     0.004307
NI3460   NI        0.008286    0.477855    0.544231     0.004307
NI3461   NI        0.040968    0.446415    0.539984     0.004307
CU3462   CU        0.040522    0.480253    0.574310     0.006663
CU3463   CU        0.070941    0.446391    0.575288     0.006663
CU3464   CU        0.068938    0.483077    0.539085     0.006663
CU3465   CU        0.099246    0.446191    0.539428     0.006663
CU3466   CU        0.101170    0.483368    0.575794     0.006663
NI3467   NI        0.131529    0.442590    0.577498     0.004307
NI3468   NI        0.153437    0.480135    0.536473     0.004307
CU3469   CU        0.183656    0.444872    0.540994     0.006663
CU3470   CU        0.183550    0.480691    0.571077     0.006663
CU3471   CU        0.219152    0.446211    0.571715     0.006663
CU3472   CU        0.218140    0.478775    0.535636     0.006663
CU3473   CU        0.249175    0.447417    0.536652     0.006663
NI3474   NI        0.251877    0.480765    0.570885     0.004307
CU3475   CU        0.284122    0.446861    0.570221     0.006663
CU3476   CU        0.284758    0.478215    0.537712     0.006663
CU3477   CU        0.315620    0.446967    0.537777     0.006663
CU3478   CU        0.319126    0.480880    0.568310     0.006663
CU3479   CU        0.350254    0.447696    0.570542     0.006663
CU3480   CU        0.351443    0.482920    0.537156     0.006663
CU3481   CU        0.383583    0.449104    0.535472     0.006663
CU3482   CU        0.386003    0.481270    0.569418     0.006663
NI3483   NI        0.419888    0.445636    0.569523     0.004307
CU3484   CU        0.416980    0.480250    0.534461     0.006663
CU3485   CU        0.450639    0.448402    0.535999     0.006663
CU3486   CU        0.450927    0.479492    0.570499     0.006663
CU3487   CU        0.484213    0.447761    0.568026     0.006663
CU3488   CU        0.482715    0.480307    0.536306     0.006663
CU3489   CU        0.517350    0.449672    0.535313     0.006663
CU3490   CU        0.517684    0.479426    0.567748     0.006663
NI3491   NI        0.551746    0.446470    0.570781     0.004307
CU3492   CU        0.551531    0.480691    0.537383     0.006663
CU3493   CU        0.587857    0.445917    0.535727     0.006663
CU3494   CU        0.584596    0.478181    0.569295     0.006663
CU3495   CU        0.621430    0.445108    0.571627     0.006663
CU3496   CU        0.620132    0.480803    0.538191     0.006663
NI3497   NI        0.653715    0.445785    0.536625     0.004307
CU3498   CU        0.653516    0.479489    0.568668     0.006663
CU3499   CU        0.686860    0.445621    0.570960     0.006663
CU3500   CU        0.685603    0.479066    0.537587     0.006663
CU3501   CU        0.720262    0.446381    0.536300     0.006663
CU3502   CU        0.718959    0.477457    0.571313     0.006663
NI3503   NI        0.753350    0.445870    0.571938     0.004307
NI3504   NI        0.752541    0.478517    0.538332     0.004307
NI3505   NI        0.798322    0.450528    0.544662     0.004307
NI3506   NI        0.806198    0.483790    0.573811     0.004307
NI3507   NI        0.838410    0.448325    0.569057     0.004307
NI3508   NI        0.837605    0.483221    0.538832     0.004307
NI3509   NI        0.869508    0.447151    0.537204     0.004307
NI3510   NI        0.869078    0.481957    0.573788     0.004307
CU3511   CU        0.903118    0.446483    0.567008     0.006663
NI3512   NI        0.899090    0.482251    0.540243     0.004307
NI3513   NI        0.009945    0.514504    0.577274     0.004307
NI3514   NI        0.005083    0.547391    0.544937     0.004307
NI3515   NI        0.036192    0.514654    0.540175     0.004307
NI3516   NI        0.036827    0.549623    0.576669     0.004307
NI3517   NI        0.069623    0.518000    0.577552     0.004307
NI3518   NI        0.067570    0.549033    0.541979     0.004307
CU3519   CU        0.098979    0.519205    0.543145     0.006663
NI3520   NI        0.100013    0.551207    0.578677     0.004307
NI3521   NI        0.130859    0.517247    0.577567     0.004307
NI3522   NI        0.128586    0.554976    0.542708     0.004307
CU3523   CU        0.186036    0.513355    0.535605     0.006663
NI3524   NI        0.184270    0.545140    0.569464     0.004307
NI3525   NI        0.219768    0.512412    0.568403     0.004307
NI3526   NI        0.219077    0.546943    0.539063     0.004307
CU3527   CU        0.251983    0.512584    0.535932     0.006663
CU3528   CU        0.252196    0.547410    0.572715     0.006663
CU3529   CU        0.284724    0.513420    0.571791     0.006663
CU3530   CU        0.285324    0.547761    0.539408     0.006663
CU3531   CU        0.317796    0.515223    0.537491     0.006663
CU3532   CU        0.316765    0.547776    0.571656     0.006663
NI3533   NI        0.348463    0.515658    0.570272     0.004307
CU3534   CU        0.350906    0.547257    0.536972     0.006663
CU3535   CU        0.385912    0.514367    0.535420     0.006663
CU3536   CU        0.384591    0.546353    0.570551     0.006663
CU3537   CU        0.420945    0.513602    0.570325     0.006663
CU3538   CU        0.418505    0.547591    0.537213     0.006663
CU3539   CU        0.452876    0.514384    0.535028     0.006663
CU3540   CU        0.451698    0.548473    0.569732     0.006663
CU3541   CU        0.483736    0.513111    0.571009     0.006663
CU3542   CU        0.484890    0.545807    0.536849     0.006663
CU3543   CU        0.516756    0.512830    0.537362     0.006663
CU3544   CU        0.518136    0.546512    0.569901     0.006663
CU3545   CU        0.553211    0.511151    0.570146     0.006663
CU3546   CU        0.553924    0.544940    0.537102     0.006663
CU3547   CU        0.586602    0.512917    0.537423     0.006663
NI3548   NI        0.588432    0.548505    0.570642     0.004307
CU3549   CU        0.619399    0.515250    0.570734     0.006663
NI3550   NI        0.619211    0.546766    0.539792     0.004307
NI3551   NI        0.654938    0.514464    0.538174     0.004307
CU3552   CU        0.652752    0.547378    0.572162     0.006663
NI3553   NI        0.685012    0.513693    0.570748     0.004307
NI3554   NI        0.687142    0.544181    0.538041     0.004307
CU3555   CU        0.720141    0.512432    0.536639     0.006663
CU3556   CU        0.718785    0.544898    0.570737     0.006663
NI3557   NI        0.751296    0.510544    0.568741     0.004307
NI3558   NI        0.751092    0.545200    0.538858     0.004307
NI3559   NI        0.805947    0.518428    0.539279     0.004307
NI3560   NI        0.806424    0.552400    0.576947     0.004307
CU3561   CU        0.836978    0.515460    0.574348     0.006663
CU3562   CU        0.838271    0.551615    0.539458     0.006663
NI3563   NI        0.868455    0.514490    0.539078     0.004307
NI3564   NI        0.865040    0.549440    0.575220     0.004307
NI3565   NI        0.900080    0.515521    0.575946     0.004307
NI3566   NI        0.898727    0.550716    0.543477     0.004307
NI3567   NI        0.037238    0.580961    0.542534     0.004307
NI3568   NI        0.040205    0.624522    0.582802     0.004307
NI3569   NI        0.067122    0.586119    0.580853     0.004307
NI3570   NI        0.070466    0.625540    0.546507     0.004307
NI3571   NI        0.094137    0.584318    0.544359     0.004307
CU3572   CU        0.101474    0.619318    0.580299     0.006663
NI3573   NI        0.130728    0.583876    0.578192     0.004307
CU3574   CU        0.154895    0.611203    0.539981     0.006663
NI3575   NI        0.186442    0.578746    0.541026     0.004307
CU3576   CU        0.186413    0.614287    0.569810     0.006663
NI3577   NI        0.218944    0.580404    0.570560     0.004307
NI3578   NI        0.218863    0.613721    0.538175     0.004307
NI3579   NI        0.252186    0.582076    0.539377     0.004307
CU3580   CU        0.250861    0.614883    0.571791     0.006663
NI3581   NI        0.282987    0.583748    0.569917     0.004307
CU3582   CU        0.284528    0.614458    0.538610     0.006663
CU3583   CU        0.318127    0.579189    0.536536     0.006663
CU3584   CU        0.316490    0.614145    0.567537     0.006663
CU3585   CU        0.353489    0.580277    0.570656     0.006663
CU3586   CU        0.349086    0.612941    0.537250     0.006663
CU3587   CU        0.385957    0.580606    0.537726     0.006663
CU3588   CU        0.384736    0.616565    0.570772     0.006663
CU3589   CU        0.416252    0.580660    0.569636     0.006663
CU3590   CU        0.420278    0.615769    0.537077     0.006663
CU3591   CU        0.453428    0.580505    0.536648     0.006663
CU3592   CU        0.453536    0.618726    0.568519     0.006663
CU3593   CU        0.485431    0.581217    0.569288     0.006663
CU3594   CU        0.486597    0.615744    0.536051     0.006663
CU3595   CU        0.521083    0.580125    0.537680     0.006663
NI3596   NI        0.518854    0.614635    0.571533     0.004307
CU3597   CU        0.553384    0.579384    0.569721     0.006663
CU3598   CU        0.552978    0.613815    0.536129     0.006663
CU3599   CU        0.582997    0.581340    0.535242     0.006663
CU3600   CU        0.587212    0.614732    0.572472     0.006663
NI3601   NI        0.621573    0.581064    0.571230     0.004307
CU3602   CU        0.617887    0.610835    0.537230     0.006663
CU3603   CU        0.653297    0.578482    0.538252     0.006663
CU3604   CU        0.655334    0.613217    0.570752     0.006663
NI3605   NI        0.687631    0.578221    0.571904     0.004307
CU3606   CU        0.685245    0.612068    0.536034     0.006663
CU3607   CU        0.716873    0.579306    0.535853     0.006663
NI3608   NI        0.717187    0.612624    0.570065     0.004307
NI3609   NI        0.748218    0.578624    0.575574     0.004307
NI3610   NI        0.778732    0.621867    0.542856     0.004307
NI3611   NI        0.806345    0.586724    0.541179     0.004307
NI3612   NI        0.805531    0.620895    0.577960     0.004307
CU3613   CU        0.836932    0.588029    0.576189     0.006663
NI3614   NI        0.836187    0.620283    0.542179     0.004307
NI3615   NI        0.868472    0.582616    0.542624     0.004307
NI3616   NI        0.866110    0.623418    0.577100     0.004307
NI3617   NI        0.043475    0.659819    0.540232     0.004307
NI3618   NI        0.071833    0.657923    0.580912     0.004307
NI3619   NI        0.093707    0.662121    0.541314     0.004307
NI3620   NI        0.113178    0.623024    0.538892     0.004307
NI3621   NI        0.105695    0.695672    0.575267     0.004307
NI3622   NI        0.137775    0.662634    0.578732     0.004307
NI3623   NI        0.140042    0.695739    0.543714     0.004307
NI3624   NI        0.183637    0.646087    0.536916     0.004307
NI3625   NI        0.171376    0.694712    0.576951     0.004307
NI3626   NI        0.216381    0.648773    0.570804     0.004307
NI3627   NI        0.217743    0.679938    0.538136     0.004307
NI3628   NI        0.249759    0.646750    0.537581     0.004307
NI3629   NI        0.250671    0.679839    0.569714     0.004307
CU3630   CU        0.282491    0.647912    0.568939     0.006663
CU3631   CU        0.282539    0.679009    0.536504     0.006663
NI3632   NI        0.315455    0.648765    0.536460     0.004307
CU3633   CU        0.318000    0.681788    0.569846     0.006663
CU3634   CU        0.351889    0.648485    0.569895     0.006663
CU3635   CU        0.351065    0.679788    0.537459     0.006663
CU3636   CU        0.387316    0.649866    0.537393     0.006663
CU3637   CU        0.383317    0.682844    0.569545     0.006663
CU3638   CU        0.417673    0.647629    0.570737     0.006663
CU3639   CU        0.419996    0.679908    0.535387     0.006663
NI3640   NI        0.454966    0.649429    0.536019     0.004307
CU3641   CU        0.453640    0.681919    0.570172     0.006663
CU3642   CU        0.488193    0.649584    0.569941     0.006663
CU3643   CU        0.486770    0.681216    0.538112     0.006663
CU3644   CU        0.521253    0.648292    0.537270     0.006663
CU3645   CU        0.522235    0.680845    0.572896     0.006663
CU3646   CU        0.554935    0.646692    0.570819     0.006663
NI3647   NI        0.552511    0.679670    0.536611     0.004307
CU3648   CU        0.588440    0.647005    0.534354     0.006663
NI3649   NI        0.586617    0.680495    0.569086     0.004307
NI3650   NI        0.621679    0.648331    0.571927     0.004307
NI3651   NI        0.621018    0.681846    0.537062     0.004307
NI3652   NI        0.651214    0.646618    0.537699     0.004307
NI3653   NI        0.653847    0.683186    0.574346     0.004307
NI3654   NI        0.685879    0.646767    0.570729     0.004307
NI3655   NI        0.683641    0.680408    0.540027     0.004307
NI3656   NI        0.716738    0.647445    0.537072     0.004307
NI3657   NI        0.716838    0.679904    0.570551     0.004307
NI3658   NI        0.775003    0.653559    0.579284     0.004307
CU3659   CU        0.768371    0.697297    0.535848     0.006663
NI3660   NI        0.800051    0.663675    0.540855     0.004307
NI3661   NI        0.803605    0.687290    0.580992     0.004307
NI3662   NI        0.833135    0.655525    0.574136     0.004307
NI3663   NI        0.836798    0.690248    0.546820     0.004307
NI3664   NI        0.865862    0.654010    0.540924     0.004307
NI3665   NI        0.107634    0.728281    0.540903     0.004307
NI3666   NI        0.109471    0.759189    0.576783     0.004307
NI3667   NI        0.139404    0.726739    0.576782     0.004307
NI3668   NI        0.141896    0.758563    0.540384     0.004307
CU3669   CU        0.175119    0.726411    0.541218     0.006663
NI3670   NI        0.174259    0.758565    0.575687     0.004307
NI3671   NI        0.206869    0.729228    0.577041     0.004307
NI3672   NI        0.207643    0.757476    0.539055     0.004307
NI3673   NI        0.250801    0.712414    0.538519     0.004307
NI3674   NI        0.241477    0.759036    0.576376     0.004307
NI3675   NI        0.283849    0.712553    0.570053     0.004307
NI3676   NI        0.285367    0.745345    0.535799     0.004307
NI3677   NI        0.318253    0.713869    0.536346     0.004307
NI3678   NI        0.317793    0.746255    0.570052     0.004307
NI3679   NI        0.351652    0.714932    0.568482     0.004307
CU3680   CU        0.351966    0.744861    0.535845     0.006663
NI3681   NI        0.386840    0.715335    0.537593     0.004307
NI3682   NI        0.384188    0.746829    0.573817     0.004307
CU3683   CU        0.420873    0.713273    0.570509     0.006663
NI3684   NI        0.414452    0.748228    0.540139     0.004307
CU3685   CU        0.453318    0.714372    0.538186     0.006663
NI3686   NI        0.451656    0.746331    0.573280     0.004307
NI3687   NI        0.486967    0.713357    0.572955     0.004307
NI3688   NI        0.485751    0.766696    0.536753     0.004307
CU3689   CU        0.520452    0.713567    0.537732     0.006663
NI3690   NI        0.517287    0.745884    0.569973     0.004307
NI3691   NI        0.554267    0.713332    0.569475     0.004307
NI3692   NI        0.550848    0.744972    0.538224     0.004307
CU3693   CU        0.586699    0.710699    0.534718     0.006663
NI3694   NI        0.596335    0.759272    0.577189     0.004307
CU3695   CU        0.627908    0.726657    0.574904     0.006663
NI3696   NI        0.629273    0.757356    0.539168     0.004307
NI3697   NI        0.653461    0.715073    0.538877     0.004307
NI3698   NI        0.662401    0.758283    0.570662     0.004307
NI3699   NI        0.687956    0.713733    0.575818     0.004307
CU3700   CU        0.698754    0.760504    0.534825     0.006663
CU3701   CU        0.735078    0.730061    0.537467     0.006663
NI3702   NI        0.729538    0.761603    0.568336     0.004307
NI3703   NI        0.764736    0.732926    0.571294     0.004307
NI3704   NI        0.764113    0.765608    0.534780     0.004307
CU3705   CU        0.796355    0.732335    0.535685     0.006663
NI3706   NI        0.796287    0.765205    0.570334     0.004307
NI3707   NI        0.142180    0.791779    0.573571     0.004307
NI3708   NI        0.175791    0.790837    0.540029     0.004307
NI3709   NI        0.206132    0.793314    0.575878     0.004307
NI3710   NI        0.210726    0.824856    0.538760     0.004307
NI3711   NI        0.244133    0.792617    0.538672     0.004307
CU3712   CU        0.242698    0.824589    0.575828     0.006663
NI3713   NI        0.275594    0.793907    0.577581     0.004307
NI3714   NI        0.275420    0.825532    0.540653     0.004307
NI3715   NI        0.313066    0.799707    0.539940     0.004307
NI3716   NI        0.309373    0.826672    0.574792     0.004307
NI3717   NI        0.346285    0.798667    0.576356     0.004307
CU3718   CU        0.347219    0.828683    0.539262     0.006663
CU3719   CU        0.381905    0.798801    0.540963     0.006663
NI3720   NI        0.379447    0.830003    0.574134     0.004307
NI3721   NI        0.416531    0.798632    0.573698     0.004307
CU3722   CU        0.416557    0.829336    0.536654     0.006663
NI3723   NI        0.451386    0.797610    0.539675     0.004307
NI3724   NI        0.451607    0.828358    0.574020     0.004307
CU3725   CU        0.487094    0.799535    0.572090     0.006663
CU3726   CU        0.485514    0.831705    0.538543     0.006663
NI3727   NI        0.519104    0.798186    0.537751     0.004307
NI3728   NI        0.520940    0.829568    0.572441     0.004307
NI3729   NI        0.560752    0.794037    0.578820     0.004307
CU3730   CU        0.556716    0.826890    0.539572     0.006663
NI3731   NI        0.593281    0.791550    0.541975     0.004307
CU3732   CU        0.591436    0.827645    0.572985     0.006663
NI3733   NI        0.630263    0.791005    0.574137     0.004307
CU3734   CU        0.627841    0.823931    0.540424     0.006663
NI3735   NI        0.661213    0.792329    0.538527     0.004307
NI3736   NI        0.663020    0.826153    0.571710     0.004307
NI3737   NI        0.696834    0.793794    0.569103     0.004307
NI3738   NI        0.694132    0.826717    0.535989     0.004307
NI3739   NI        0.729298    0.794075    0.534764     0.004307
NI3740   NI        0.759684    0.794508    0.570882     0.004307
NI3741   NI        0.245276    0.856832    0.540024     0.004307
NI3742   NI        0.276905    0.858596    0.575786     0.004307
NI3743   NI        0.309712    0.856229    0.538087     0.004307
CU3744   CU        0.345778    0.859847    0.574032     0.006663
NI3745   NI        0.343109    0.887930    0.537124     0.004307
NI3746   NI        0.381390    0.859772    0.540318     0.004307
NI3747   NI        0.384285    0.890668    0.577516     0.004307
NI3748   NI        0.417923    0.857962    0.579278     0.004307
CU3749   CU        0.416678    0.890323    0.540760     0.006663
CU3750   CU        0.449606    0.859548    0.539136     0.006663
NI3751   NI        0.452355    0.889549    0.575491     0.004307
NI3752   NI        0.486098    0.861216    0.572681     0.004307
NI3753   NI        0.484596    0.892986    0.539947     0.004307
NI3754   NI        0.520714    0.860189    0.538292     0.004307
NI3755   NI        0.519091    0.891195    0.571168     0.004307
CU3756   CU        0.555904    0.859290    0.571440     0.006663
NI3757   NI        0.555936    0.889431    0.536883     0.004307
NI3758   NI        0.591291    0.860828    0.537800     0.004307
NI3759   NI        0.627901    0.856089    0.571811     0.004307
NI3760   NI        0.659097    0.857321    0.536448     0.004307
NI3761   NI        0.416777    0.006275    0.610327     0.004307
NI3762   NI        0.486369    0.006187    0.611133     0.004307
NI3763   NI        0.243442    0.035729    0.609809     0.004307
NI3764   NI        0.246921    0.065884    0.645024     0.004307
NI3765   NI        0.278818    0.065552    0.609688     0.004307
NI3766   NI        0.313380    0.036405    0.610782     0.004307
NI3767   NI        0.311868    0.066842    0.646812     0.004307
NI3768   NI        0.345406    0.036550    0.645845     0.004307
CU3769   CU        0.345385    0.064618    0.612411     0.006663
CU3770   CU        0.381899    0.035371    0.611977     0.006663
CU3771   CU        0.380753    0.065276    0.649068     0.006663
NI3772   NI        0.417172    0.037173    0.645680     0.004307
NI3773   NI        0.416244    0.069235    0.609902     0.004307
NI3774   NI        0.450776    0.036180    0.612559     0.004307
CU3775   CU        0.449676    0.068341    0.646135     0.006663
CU3776   CU        0.483964    0.035953    0.647247     0.006663
NI3777   NI        0.488866    0.067304    0.609696     0.004307
NI3778   NI        0.523519    0.035074    0.607646     0.004307
NI3779   NI        0.526249    0.066873    0.648026     0.004307
NI3780   NI        0.561305    0.036170    0.648270     0.004307
CU3781   CU        0.558763    0.065669    0.613597     0.006663
NI3782   NI        0.594605    0.036726    0.613901     0.004307
NI3783   NI        0.591945    0.071813    0.645286     0.004307
NI3784   NI        0.627192    0.069142    0.613268     0.004307
NI3785   NI        0.661289    0.071756    0.646137     0.004307
NI3786   NI        0.693714    0.073052    0.614491     0.004307
NI3787   NI        0.140618    0.134931    0.609676     0.004307
NI3788   NI        0.173709    0.100822    0.605901     0.004307
NI3789   NI        0.174305    0.132609    0.642423     0.004307
NI3790   NI        0.210081    0.098631    0.641998     0.004307
NI3791   NI        0.206246    0.132187    0.608799     0.004307
NI3792   NI        0.243823    0.097401    0.611801     0.004307
NI3793   NI        0.241159    0.131136    0.643159     0.004307
NI3794   NI        0.277406    0.099047    0.644970     0.004307
NI3795   NI        0.274046    0.128341    0.610170     0.004307
CU3796   CU        0.311945    0.097579    0.613147     0.006663
NI3797   NI        0.309225    0.131659    0.646501     0.004307
NI3798   NI        0.345184    0.097482    0.646811     0.004307
NI3799   NI        0.346102    0.128929    0.613459     0.004307
CU3800   CU        0.378605    0.095547    0.613293     0.006663
NI3801   NI        0.379819    0.128665    0.645420     0.004307
NI3802   NI        0.413462    0.098493    0.649616     0.004307
NI3803   NI        0.414767    0.122745    0.611328     0.004307
NI3804   NI        0.453285    0.098541    0.609085     0.004307
NI3805   NI        0.448745    0.125317    0.643871     0.004307
NI3806   NI        0.489274    0.098304    0.645354     0.004307
CU3807   CU        0.486394    0.131886    0.615257     0.006663
CU3808   CU        0.522693    0.098069    0.612771     0.006663
NI3809   NI        0.521911    0.131494    0.646554     0.004307
NI3810   NI        0.557616    0.103852    0.645307     0.004307
NI3811   NI        0.556753    0.130565    0.610407     0.004307
NI3812   NI        0.593920    0.100074    0.612318     0.004307
NI3813   NI        0.592221    0.134152    0.644722     0.004307
NI3814   NI        0.628458    0.102685    0.645784     0.004307
CU3815   CU        0.628058    0.133413    0.611717     0.006663
NI3816   NI        0.662749    0.102474    0.613152     0.004307
NI3817   NI        0.662699    0.136530    0.646638     0.004307
NI3818   NI        0.694906    0.102873    0.645676     0.004307
CU3819   CU        0.698949    0.135451    0.612293     0.006663
NI3820   NI        0.728506    0.103762    0.612579     0.004307
NI3821   NI        0.726037    0.134149    0.649924     0.004307
NI3822   NI        0.744341    0.145263    0.612797     0.004307
NI3823   NI        0.074175    0.203195    0.609437     0.004307
NI3824   NI        0.107042    0.166612    0.607810     0.004307
NI3825   NI        0.108290    0.202178    0.639116     0.004307
NI3826   NI        0.140316    0.169080    0.642178     0.004307
CU3827   CU        0.138692    0.196940    0.606755     0.006663
NI3828   NI        0.174511    0.168133    0.611148     0.004307
NI3829   NI        0.172596    0.201539    0.640826     0.004307
NI3830   NI        0.208758    0.164784    0.643948     0.004307
NI3831   NI        0.206293    0.198392    0.607564     0.004307
NI3832   NI        0.239335    0.164230    0.610076     0.004307
NI3833   NI        0.238687    0.198585    0.644829     0.004307
CU3834   CU        0.275009    0.167657    0.647013     0.006663
NI3835   NI        0.273998    0.196321    0.611333     0.004307
NI3836   NI        0.317058    0.179130    0.601860     0.004307
NI3837   NI        0.310949    0.199889    0.646304     0.004307
NI3838   NI        0.353480    0.180896    0.637808     0.004307
CU3839   CU        0.350438    0.210934    0.602626     0.006663
CU3840   CU        0.385670    0.180556    0.605257     0.006663
NI3841   NI        0.386274    0.212288    0.638273     0.004307
NI3842   NI        0.419643    0.179411    0.638751     0.004307
CU3843   CU        0.418918    0.213629    0.606406     0.006663
NI3844   NI        0.448860    0.181316    0.604032     0.004307
CU3845   CU        0.453393    0.213096    0.638002     0.006663
NI3846   NI        0.493434    0.165973    0.647700     0.004307
CU3847   CU        0.485969    0.211507    0.604978     0.006663
NI3848   NI        0.522111    0.162449    0.613135     0.004307
CU3849   CU        0.527040    0.195848    0.644993     0.006663
NI3850   NI        0.556704    0.163036    0.647208     0.004307
NI3851   NI        0.553748    0.212638    0.605425     0.004307
NI3852   NI        0.593267    0.161507    0.607298     0.004307
NI3853   NI        0.584519    0.216582    0.638740     0.004307
NI3854   NI        0.627430    0.167681    0.647985     0.004307
NI3855   NI        0.618533    0.216069    0.606876     0.004307
CU3856   CU        0.653071    0.180210    0.605166     0.006663
NI3857   NI        0.650931    0.212150    0.637841     0.004307
CU3858   CU        0.696861    0.168457    0.649684     0.006663
NI3859   NI        0.685908    0.213029    0.606399     0.004307
NI3860   NI        0.714359    0.178801    0.609248     0.004307
NI3861   NI        0.712220    0.211030    0.640719     0.004307
NI3862   NI        0.742449    0.176554    0.643492     0.004307
NI3863   NI        0.769069    0.204546    0.609832     0.004307
NI3864   NI        0.802909    0.172734    0.607628     0.004307
NI3865   NI        0.799319    0.206085    0.642558     0.004307
NI3866   NI        0.830134    0.207824    0.608683     0.004307
NI3867   NI        0.073815    0.238956    0.639943     0.004307
CU3868   CU        0.073427    0.271421    0.607058     0.006663
NI3869   NI        0.105235    0.235023    0.607992     0.004307
CU3870   CU        0.137989    0.266817    0.669401     0.006663
NI3871   NI        0.139544    0.233802    0.638671     0.004307
NI3872   NI        0.135871    0.267856    0.604650     0.004307
NI3873   NI        0.171731    0.233131    0.606115     0.004307
NI3874   NI        0.169300    0.268107    0.635345     0.004307
NI3875   NI        0.223537    0.242022    0.647999     0.004307
NI3876   NI        0.213062    0.276263    0.618688     0.004307
CU3877   CU        0.240207    0.228607    0.607396     0.006663
CU3878   CU        0.252352    0.280327    0.640690     0.006663
NI3879   NI        0.273879    0.231042    0.641921     0.004307
CU3880   CU        0.285973    0.279154    0.602081     0.006663
NI3881   NI        0.321050    0.247569    0.602346     0.004307
CU3882   CU        0.319939    0.282262    0.634649     0.006663
NI3883   NI        0.354308    0.244204    0.634659     0.004307
CU3884   CU        0.352907    0.278525    0.602316     0.006663
CU3885   CU        0.385520    0.243576    0.603001     0.006663
NI3886   NI        0.386560    0.280109    0.636390     0.004307
CU3887   CU        0.420073    0.245436    0.637106     0.006663
CU3888   CU        0.417453    0.277471    0.603068     0.006663
CU3889   CU        0.452560    0.243530    0.603232     0.006663
CU3890   CU        0.450665    0.276996    0.637698     0.006663
CU3891   CU        0.487013    0.244281    0.640083     0.006663
CU3892   CU        0.487659    0.279332    0.605075     0.006663
CU3893   CU        0.518334    0.246432    0.604666     0.006663
CU3894   CU        0.519059    0.280154    0.638441     0.006663
NI3895   NI        0.550373    0.247471    0.638695     0.004307
CU3896   CU        0.551198    0.279744    0.605085     0.006663
NI3897   NI        0.584528    0.247823    0.607495     0.004307
CU3898   CU        0.586684    0.278941    0.640939     0.006663
NI3899   NI        0.621315    0.247296    0.639755     0.004307
CU3900   CU        0.619244    0.280780    0.605251     0.006663
NI3901   NI        0.655075    0.244872    0.605370     0.004307
CU3902   CU        0.653040    0.278545    0.638879     0.006663
NI3903   NI        0.685756    0.247688    0.638838     0.004307
NI3904   NI        0.686771    0.279880    0.606965     0.004307
NI3905   NI        0.720581    0.246070    0.609852     0.004307
NI3906   NI        0.725475    0.276106    0.644464     0.004307
NI3907   NI        0.767528    0.237231    0.644925     0.004307
NI3908   NI        0.761246    0.272921    0.615523     0.004307
NI3909   NI        0.796403    0.239120    0.610638     0.004307
CU3910   CU        0.796265    0.270949    0.645030     0.006663
NI3911   NI        0.827488    0.240027    0.641618     0.004307
NI3912   NI        0.830654    0.273424    0.609522     0.004307
NI3913   NI        0.039196    0.303870    0.611964     0.004307
NI3914   NI        0.038150    0.337952    0.643015     0.004307
NI3915   NI        0.071875    0.307389    0.643231     0.004307
CU3916   CU        0.068681    0.338414    0.609836     0.006663
NI3917   NI        0.101661    0.306365    0.608641     0.004307
NI3918   NI        0.101560    0.339040    0.646664     0.004307
NI3919   NI        0.154859    0.305591    0.652564     0.004307
CU3920   CU        0.129530    0.342964    0.610349     0.006663
NI3921   NI        0.182124    0.307557    0.614349     0.004307
NI3922   NI        0.184165    0.344961    0.644572     0.004307
NI3923   NI        0.220351    0.313800    0.641754     0.004307
NI3924   NI        0.216045    0.344450    0.607124     0.004307
CU3925   CU        0.250061    0.310121    0.605163     0.006663
CU3926   CU        0.252013    0.346207    0.639342     0.006663
CU3927   CU        0.284368    0.311548    0.636832     0.006663
CU3928   CU        0.282946    0.345203    0.605210     0.006663
CU3929   CU        0.317302    0.314284    0.601416     0.006663
NI3930   NI        0.319086    0.346227    0.637633     0.004307
NI3931   NI        0.353342    0.312846    0.637639     0.004307
CU3932   CU        0.352060    0.346326    0.604069     0.006663
CU3933   CU        0.385589    0.311882    0.600911     0.006663
CU3934   CU        0.385282    0.346895    0.637617     0.006663
CU3935   CU        0.419170    0.314734    0.637992     0.006663
CU3936   CU        0.417774    0.345207    0.602516     0.006663
CU3937   CU        0.450113    0.312193    0.603026     0.006663
CU3938   CU        0.453257    0.345215    0.635603     0.006663
CU3939   CU        0.487548    0.311905    0.637140     0.006663
CU3940   CU        0.486113    0.348176    0.604006     0.006663
NI3941   NI        0.518123    0.313075    0.602919     0.004307
NI3942   NI        0.516703    0.345697    0.636651     0.004307
CU3943   CU        0.552553    0.313384    0.636999     0.006663
CU3944   CU        0.552722    0.347061    0.605011     0.006663
CU3945   CU        0.588352    0.314143    0.602992     0.006663
CU3946   CU        0.587178    0.346945    0.636336     0.006663
CU3947   CU        0.620727    0.312407    0.640705     0.006663
CU3948   CU        0.619172    0.347161    0.602449     0.006663
CU3949   CU        0.655072    0.313878    0.604625     0.006663
NI3950   NI        0.653838    0.347817    0.638221     0.004307
CU3951   CU        0.688769    0.311549    0.638210     0.006663
NI3952   NI        0.689909    0.345641    0.606284     0.004307
NI3953   NI        0.728923    0.309138    0.615132     0.004307
NI3954   NI        0.721059    0.347527    0.639110     0.004307
CU3955   CU        0.762648    0.303797    0.648882     0.006663
NI3956   NI        0.759936    0.348771    0.608628     0.004307
NI3957   NI        0.796226    0.303969    0.611791     0.004307
NI3958   NI        0.796688    0.339569    0.650368     0.004307
NI3959   NI        0.826427    0.305342    0.646870     0.004307
NI3960   NI        0.827995    0.336291    0.613922     0.004307
NI3961   NI        0.860439    0.304783    0.612823     0.004307
CU3962   CU        0.860565    0.339421    0.644911     0.006663
NI3963   NI        0.013689    0.412227    0.610589     0.004307
NI3964   NI        0.039932    0.374065    0.607153     0.004307
NI3965   NI        0.040975    0.409789    0.647579     0.004307
NI3966   NI        0.067937    0.373746    0.645441     0.004307
NI3967   NI        0.068164    0.411075    0.611353     0.004307
NI3968   NI        0.097552    0.374794    0.610190     0.004307
CU3969   CU        0.098747    0.409754    0.644089     0.006663
NI3970   NI        0.128980    0.375580    0.641019     0.004307
NI3971   NI        0.129663    0.409654    0.611432     0.004307
NI3972   NI        0.186866    0.379179    0.605449     0.004307
NI3973   NI        0.184821    0.410521    0.639543     0.004307
NI3974   NI        0.218281    0.378018    0.640723     0.004307
NI3975   NI        0.220427    0.411855    0.605020     0.004307
CU3976   CU        0.250131    0.378756    0.605670     0.006663
CU3977   CU        0.250690    0.411005    0.638182     0.006663
CU3978   CU        0.284980    0.378980    0.637970     0.006663
CU3979   CU        0.284539    0.414627    0.605204     0.006663
CU3980   CU        0.316416    0.377062    0.604809     0.006663
CU3981   CU        0.319644    0.414460    0.639011     0.006663
CU3982   CU        0.351806    0.379888    0.635323     0.006663
NI3983   NI        0.349050    0.415721    0.605046     0.004307
CU3984   CU        0.384439    0.379304    0.602362     0.006663
NI3985   NI        0.386552    0.413849    0.636628     0.004307
CU3986   CU        0.417336    0.379580    0.637371     0.006663
NI3987   NI        0.418013    0.412130    0.600990     0.004307
CU3988   CU        0.450875    0.378011    0.603216     0.006663
CU3989   CU        0.452135    0.413991    0.639465     0.006663
CU3990   CU        0.486109    0.378981    0.637346     0.006663
CU3991   CU        0.485972    0.411324    0.603567     0.006663
CU3992   CU        0.518719    0.380171    0.604123     0.006663
NI3993   NI        0.517297    0.413711    0.639933     0.004307
CU3994   CU        0.552306    0.379786    0.638489     0.006663
CU3995   CU        0.552775    0.412048    0.602234     0.006663
CU3996   CU        0.585269    0.378261    0.605307     0.006663
CU3997   CU        0.583756    0.411305    0.636295     0.006663
NI3998   NI        0.620161    0.378976    0.639433     0.004307
NI3999   NI        0.620238    0.412837    0.604087     0.004307
CU4000   CU        0.655594    0.379586    0.604037     0.006663
NI4001   NI        0.653554    0.413273    0.638010     0.004307
NI4002   NI        0.688333    0.380109    0.638584     0.004307
CU4003   CU        0.689188    0.412322    0.603780     0.006663
NI4004   NI        0.721347    0.378658    0.606701     0.004307
NI4005   NI        0.721495    0.413506    0.641567     0.004307
CU4006   CU        0.756399    0.383007    0.637718     0.006663
NI4007   NI        0.753139    0.412992    0.603821     0.004307
NI4008   NI        0.788858    0.383671    0.605659     0.004307
NI4009   NI        0.796292    0.401906    0.649371     0.004307
NI4010   NI        0.828135    0.371510    0.649065     0.004307
NI4011   NI        0.827665    0.402693    0.615372     0.004307
NI4012   NI        0.859856    0.369714    0.613508     0.004307
NI4013   NI        0.862047    0.404907    0.646666     0.004307
NI4014   NI        0.891978    0.402419    0.610524     0.004307
CU4015   CU        0.008969    0.480180    0.607386     0.006663
NI4016   NI        0.042166    0.447757    0.612232     0.004307
CU4017   CU        0.040732    0.479614    0.642970     0.006663
NI4018   NI        0.073790    0.446381    0.645505     0.004307
NI4019   NI        0.072077    0.481343    0.612779     0.004307
NI4020   NI        0.100250    0.442849    0.610057     0.004307
CU4021   CU        0.103447    0.481064    0.647360     0.006663
NI4022   NI        0.130264    0.442971    0.642348     0.004307
NI4023   NI        0.131447    0.479867    0.607724     0.004307
NI4024   NI        0.163078    0.443326    0.611670     0.004307
CU4025   CU        0.189343    0.478736    0.633498     0.006663
NI4026   NI        0.218991    0.443155    0.638902     0.004307
CU4027   CU        0.220473    0.480602    0.600319     0.006663
NI4028   NI        0.250692    0.446441    0.604584     0.004307
CU4029   CU        0.250288    0.478986    0.639727     0.006663
NI4030   NI        0.285788    0.446200    0.639426     0.004307
CU4031   CU        0.285412    0.481487    0.604723     0.006663
CU4032   CU        0.316741    0.449191    0.603581     0.006663
CU4033   CU        0.320727    0.482535    0.636552     0.006663
CU4034   CU        0.352073    0.448948    0.637638     0.006663
CU4035   CU        0.351550    0.480101    0.602437     0.006663
CU4036   CU        0.386417    0.447197    0.601469     0.006663
CU4037   CU        0.385562    0.479625    0.637910     0.006663
NI4038   NI        0.418793    0.447498    0.634922     0.004307
CU4039   CU        0.419248    0.479723    0.601896     0.006663
CU4040   CU        0.452379    0.444812    0.603050     0.006663
CU4041   CU        0.450701    0.481093    0.634907     0.006663
CU4042   CU        0.485453    0.448033    0.635826     0.006663
CU4043   CU        0.483836    0.478981    0.602240     0.006663
CU4044   CU        0.519692    0.444214    0.604320     0.006663
CU4045   CU        0.519844    0.479297    0.636684     0.006663
CU4046   CU        0.553932    0.446551    0.637119     0.006663
CU4047   CU        0.553207    0.480338    0.603697     0.006663
CU4048   CU        0.587766    0.445462    0.602663     0.006663
CU4049   CU        0.585165    0.478984    0.636140     0.006663
NI4050   NI        0.618177    0.447468    0.636014     0.004307
NI4051   NI        0.617612    0.481996    0.602661     0.004307
CU4052   CU        0.652159    0.447140    0.605064     0.006663
CU4053   CU        0.651537    0.479708    0.635487     0.006663
NI4054   NI        0.687045    0.446236    0.636276     0.004307
NI4055   NI        0.686690    0.478447    0.603669     0.004307
CU4056   CU        0.720102    0.446316    0.604783     0.006663
NI4057   NI        0.718860    0.479915    0.637934     0.004307
NI4058   NI        0.753702    0.446326    0.635986     0.004307
NI4059   NI        0.763908    0.491633    0.614807     0.004307
CU4060   CU        0.810598    0.444933    0.603642     0.006663
NI4061   NI        0.798893    0.489343    0.645976     0.004307
NI4062   NI        0.843417    0.446407    0.636535     0.004307
NI4063   NI        0.833389    0.482705    0.609537     0.004307
NI4064   NI        0.873320    0.447234    0.603328     0.004307
NI4065   NI        0.862509    0.485373    0.644193     0.004307
NI4066   NI        0.896544    0.483960    0.612309     0.004307
NI4067   NI        0.039758    0.513406    0.611410     0.004307
NI4068   NI        0.042435    0.551607    0.646248     0.004307
CU4069   CU        0.072328    0.515197    0.646877     0.006663
NI4070   NI        0.070742    0.551867    0.612283     0.004307
NI4071   NI        0.102210    0.516110    0.611041     0.004307
NI4072   NI        0.102533    0.551168    0.647790     0.004307
NI4073   NI        0.135492    0.520242    0.647924     0.004307
NI4074   NI        0.133850    0.553000    0.614558     0.004307
NI4075   NI        0.187331    0.513562    0.603057     0.004307
NI4076   NI        0.168983    0.552981    0.648215     0.004307
CU4077   CU        0.218306    0.512220    0.633803     0.006663
NI4078   NI        0.206379    0.556113    0.612076     0.004307
CU4079   CU        0.251806    0.515393    0.601973     0.006663
NI4080   NI        0.250045    0.547373    0.636300     0.004307
NI4081   NI        0.281050    0.513548    0.637700     0.004307
CU4082   CU        0.284318    0.547962    0.603251     0.006663
CU4083   CU        0.319682    0.513574    0.603307     0.006663
CU4084   CU        0.318162    0.546231    0.636070     0.006663
NI4085   NI        0.352457    0.513862    0.636176     0.004307
CU4086   CU        0.350477    0.545301    0.603681     0.006663
CU4087   CU        0.385353    0.512920    0.603267     0.006663
NI4088   NI        0.384219    0.545721    0.634557     0.004307
CU4089   CU        0.420008    0.513967    0.635488     0.006663
CU4090   CU        0.418901    0.547289    0.600644     0.006663
CU4091   CU        0.452603    0.514647    0.602903     0.006663
CU4092   CU        0.452887    0.545798    0.637028     0.006663
CU4093   CU        0.488609    0.512650    0.634806     0.006663
CU4094   CU        0.484833    0.548607    0.603526     0.006663
CU4095   CU        0.517691    0.513516    0.602280     0.006663
CU4096   CU        0.518457    0.546782    0.636378     0.006663
CU4097   CU        0.549744    0.512959    0.637562     0.006663
CU4098   CU        0.552141    0.547088    0.603614     0.006663
CU4099   CU        0.584787    0.514168    0.602936     0.006663
NI4100   NI        0.584013    0.547756    0.638203     0.004307
NI4101   NI        0.618942    0.512945    0.638400     0.004307
CU4102   CU        0.620368    0.545211    0.604699     0.006663
NI4103   NI        0.652104    0.513984    0.603716     0.004307
CU4104   CU        0.652803    0.544169    0.637404     0.006663
CU4105   CU        0.684431    0.510835    0.635272     0.006663
CU4106   CU        0.687625    0.545846    0.603575     0.006663
NI4107   NI        0.719327    0.510765    0.602471     0.004307
NI4108   NI        0.722688    0.530580    0.642316     0.004307
NI4109   NI        0.767784    0.522474    0.647285     0.004307
NI4110   NI        0.773255    0.554693    0.610638     0.004307
NI4111   NI        0.803136    0.519296    0.611416     0.004307
CU4112   CU        0.800805    0.552522    0.648080     0.006663
NI4113   NI        0.832913    0.520041    0.647661     0.004307
NI4114   NI        0.836914    0.553113    0.610569     0.004307
CU4115   CU        0.863606    0.517382    0.610094     0.006663
NI4116   NI        0.865159    0.553104    0.648546     0.004307
NI4117   NI        0.038836    0.586732    0.615966     0.004307
NI4118   NI        0.071386    0.584983    0.645107     0.004307
NI4119   NI        0.071170    0.624494    0.614385     0.004307
CU4120   CU        0.100636    0.587533    0.612889     0.006663
CU4121   CU        0.105235    0.620935    0.645297     0.006663
NI4122   NI        0.136635    0.586608    0.648152     0.004307
NI4123   NI        0.136758    0.620281    0.614092     0.004307
NI4124   NI        0.167545    0.587316    0.613818     0.004307
CU4125   CU        0.172684    0.625212    0.646328     0.006663
CU4126   CU        0.200572    0.585866    0.643379     0.006663
NI4127   NI        0.203457    0.623874    0.613076     0.004307
NI4128   NI        0.250204    0.580573    0.604676     0.004307
NI4129   NI        0.254699    0.614857    0.636211     0.004307
CU4130   CU        0.283860    0.579402    0.636621     0.006663
NI4131   NI        0.285697    0.615449    0.601821     0.004307
CU4132   CU        0.318620    0.581097    0.603204     0.006663
CU4133   CU        0.318211    0.612042    0.636042     0.006663
NI4134   NI        0.350670    0.579377    0.634369     0.004307
CU4135   CU        0.351139    0.614358    0.602567     0.006663
CU4136   CU        0.386257    0.578818    0.603315     0.006663
NI4137   NI        0.387884    0.612882    0.636302     0.004307
CU4138   CU        0.419119    0.578542    0.635667     0.006663
CU4139   CU        0.419260    0.616256    0.603124     0.006663
CU4140   CU        0.453068    0.582984    0.601047     0.006663
NI4141   NI        0.454019    0.615074    0.634482     0.004307
CU4142   CU        0.488001    0.581706    0.634202     0.006663
CU4143   CU        0.489829    0.616507    0.604311     0.006663
CU4144   CU        0.519785    0.582506    0.602258     0.006663
CU4145   CU        0.521006    0.615029    0.640507     0.006663
NI4146   NI        0.550620    0.581128    0.637845     0.004307
NI4147   NI        0.555085    0.613345    0.603477     0.004307
NI4148   NI        0.585171    0.579697    0.606324     0.004307
NI4149   NI        0.585663    0.614679    0.636941     0.004307
NI4150   NI        0.620731    0.579244    0.635249     0.004307
NI4151   NI        0.621891    0.616865    0.605173     0.004307
NI4152   NI        0.653193    0.579468    0.605193     0.004307
CU4153   CU        0.654731    0.614768    0.638144     0.006663
NI4154   NI        0.684425    0.581196    0.638148     0.004307
NI4155   NI        0.685045    0.613804    0.604210     0.004307
CU4156   CU        0.716634    0.582960    0.605045     0.006663
NI4157   NI        0.718260    0.617473    0.636568     0.004307
NI4158   NI        0.772254    0.588075    0.646947     0.004307
NI4159   NI        0.772976    0.620300    0.613051     0.004307
NI4160   NI        0.805049    0.588274    0.609877     0.004307
NI4161   NI        0.803259    0.621200    0.645734     0.004307
NI4162   NI        0.835105    0.586750    0.645771     0.004307
NI4163   NI        0.836124    0.620211    0.614797     0.004307
CU4164   CU        0.869685    0.587748    0.610041     0.006663
NI4165   NI        0.078260    0.656561    0.644814     0.004307
NI4166   NI        0.077327    0.691449    0.612010     0.004307
NI4167   NI        0.106257    0.653858    0.610485     0.004307
NI4168   NI        0.109454    0.691889    0.647196     0.004307
NI4169   NI        0.139517    0.655462    0.646008     0.004307
CU4170   CU        0.139219    0.694590    0.611090     0.006663
NI4171   NI        0.173367    0.658253    0.613501     0.004307
NI4172   NI        0.172143    0.692263    0.645124     0.004307
NI4173   NI        0.206093    0.657257    0.645435     0.004307
NI4174   NI        0.205172    0.693552    0.612935     0.004307
NI4175   NI        0.240877    0.661423    0.612725     0.004307
CU4176   CU        0.239178    0.692496    0.646808     0.006663
NI4177   NI        0.285900    0.644856    0.637566     0.004307
NI4178   NI        0.285090    0.681020    0.603856     0.004307
NI4179   NI        0.320184    0.645872    0.601081     0.004307
NI4180   NI        0.316974    0.679174    0.635991     0.004307
CU4181   CU        0.349258    0.647603    0.633946     0.006663
CU4182   CU        0.349699    0.681850    0.604253     0.006663
CU4183   CU        0.383957    0.647773    0.602708     0.006663
CU4184   CU        0.385013    0.678625    0.634482     0.006663
CU4185   CU        0.417755    0.646525    0.636516     0.006663
CU4186   CU        0.420377    0.680115    0.601834     0.006663
CU4187   CU        0.453125    0.647932    0.603041     0.006663
CU4188   CU        0.450903    0.681986    0.636411     0.006663
NI4189   NI        0.488207    0.646724    0.637114     0.004307
CU4190   CU        0.484413    0.679354    0.604670     0.006663
CU4191   CU        0.522187    0.647363    0.607826     0.006663
CU4192   CU        0.520369    0.681334    0.637735     0.006663
CU4193   CU        0.554950    0.652192    0.644227     0.006663
NI4194   NI        0.555598    0.680695    0.605274     0.004307
NI4195   NI        0.589545    0.648981    0.604109     0.004307
NI4196   NI        0.590130    0.690996    0.643105     0.004307
CU4197   CU        0.620114    0.648595    0.640965     0.006663
NI4198   NI        0.623068    0.684099    0.610584     0.004307
NI4199   NI        0.654863    0.649176    0.605378     0.004307
NI4200   NI        0.656601    0.681712    0.641033     0.004307
NI4201   NI        0.685139    0.648272    0.638265     0.004307
NI4202   NI        0.688560    0.681508    0.605151     0.004307
NI4203   NI        0.717424    0.646107    0.602457     0.004307
NI4204   NI        0.734562    0.688368    0.647481     0.004307
NI4205   NI        0.769856    0.654836    0.645760     0.004307
NI4206   NI        0.769788    0.685990    0.612985     0.004307
CU4207   CU        0.806082    0.653775    0.610580     0.006663
NI4208   NI        0.799427    0.687406    0.647166     0.004307
NI4209   NI        0.832506    0.654201    0.647169     0.004307
NI4210   NI        0.835599    0.686955    0.612969     0.004307
NI4211   NI        0.110286    0.726031    0.611471     0.004307
NI4212   NI        0.141672    0.724140    0.643391     0.004307
NI4213   NI        0.143258    0.759577    0.610068     0.004307
NI4214   NI        0.174213    0.726066    0.611324     0.004307
CU4215   CU        0.177272    0.758763    0.642580     0.006663
NI4216   NI        0.208958    0.725191    0.647007     0.004307
CU4217   CU        0.210640    0.758862    0.611077     0.006663
NI4218   NI        0.239621    0.725626    0.613037     0.004307
CU4219   CU        0.242343    0.758799    0.647187     0.006663
NI4220   NI        0.275215    0.727924    0.646243     0.004307
CU4221   CU        0.273741    0.757765    0.613224     0.006663
CU4222   CU        0.317963    0.713944    0.601587     0.006663
CU4223   CU        0.309394    0.760046    0.647368     0.006663
NI4224   NI        0.353184    0.711712    0.637854     0.004307
NI4225   NI        0.352595    0.745649    0.605779     0.004307
NI4226   NI        0.383069    0.713721    0.606481     0.004307
NI4227   NI        0.384271    0.743916    0.637455     0.004307
NI4228   NI        0.418884    0.713474    0.637083     0.004307
CU4229   CU        0.416330    0.745015    0.605271     0.006663
CU4230   CU        0.451988    0.712651    0.604824     0.006663
NI4231   NI        0.452890    0.744517    0.637245     0.004307
NI4232   NI        0.484813    0.712970    0.636072     0.004307
NI4233   NI        0.487408    0.746595    0.606786     0.004307
CU4234   CU        0.519197    0.712385    0.604779     0.006663
NI4235   NI        0.526397    0.759726    0.649901     0.004307
NI4236   NI        0.562155    0.730268    0.645619     0.004307
NI4237   NI        0.561948    0.761548    0.610634     0.004307
NI4238   NI        0.597567    0.726091    0.608398     0.004307
NI4239   NI        0.600009    0.754963    0.643226     0.004307
NI4240   NI        0.624278    0.718233    0.644062     0.004307
NI4241   NI        0.632253    0.755081    0.608552     0.004307
NI4242   NI        0.655512    0.714493    0.610349     0.004307
CU4243   CU        0.662166    0.748152    0.643156     0.006663
CU4244   CU        0.691659    0.710920    0.640172     0.006663
NI4245   NI        0.692483    0.746500    0.611526     0.004307
NI4246   NI        0.724622    0.711690    0.607441     0.004307
NI4247   NI        0.728988    0.737409    0.644833     0.004307
NI4248   NI        0.768680    0.717871    0.649665     0.004307
NI4249   NI        0.766089    0.763407    0.602572     0.004307
NI4250   NI        0.795591    0.721149    0.612020     0.004307
NI4251   NI        0.177161    0.789925    0.608453     0.004307
NI4252   NI        0.209444    0.790272    0.644807     0.004307
NI4253   NI        0.208613    0.822702    0.613499     0.004307
NI4254   NI        0.241890    0.791478    0.610400     0.004307
NI4255   NI        0.244581    0.823667    0.642987     0.004307
NI4256   NI        0.277852    0.791424    0.643509     0.004307
NI4257   NI        0.276094    0.825298    0.608339     0.004307
NI4258   NI        0.312015    0.795522    0.608629     0.004307
NI4259   NI        0.309901    0.824587    0.646045     0.004307
NI4260   NI        0.345160    0.793839    0.645074     0.004307
NI4261   NI        0.343497    0.829825    0.610510     0.004307
NI4262   NI        0.378306    0.799344    0.608370     0.004307
CU4263   CU        0.379001    0.825731    0.647182     0.006663
NI4264   NI        0.417307    0.792503    0.647618     0.004307
NI4265   NI        0.415790    0.825968    0.611310     0.004307
NI4266   NI        0.451869    0.800713    0.609237     0.004307
NI4267   NI        0.448572    0.824684    0.648298     0.004307
NI4268   NI        0.491433    0.803571    0.642215     0.004307
CU4269   CU        0.487719    0.830985    0.604188     0.006663
NI4270   NI        0.521864    0.799676    0.608091     0.004307
CU4271   CU        0.524303    0.832955    0.638272     0.006663
NI4272   NI        0.555229    0.799533    0.639887     0.004307
NI4273   NI        0.556331    0.830529    0.604442     0.004307
NI4274   NI        0.596071    0.791391    0.608918     0.004307
NI4275   NI        0.597013    0.816253    0.645920     0.004307
NI4276   NI        0.631322    0.790965    0.638342     0.004307
NI4277   NI        0.624373    0.826070    0.603343     0.004307
NI4278   NI        0.667903    0.786025    0.607218     0.004307
NI4279   NI        0.675641    0.814546    0.645239     0.004307
NI4280   NI        0.697470    0.775637    0.643825     0.004307
NI4281   NI        0.697183    0.822799    0.604885     0.004307
NI4282   NI        0.729215    0.789219    0.605258     0.004307
NI4283   NI        0.308788    0.859014    0.607339     0.004307
NI4284   NI        0.345687    0.855910    0.648614     0.004307
NI4285   NI        0.382330    0.856888    0.609220     0.004307
NI4286   NI        0.412804    0.856103    0.644817     0.004307
NI4287   NI        0.417617    0.889002    0.610016     0.004307
CU4288   CU        0.449466    0.857366    0.611248     0.006663
NI4289   NI        0.483768    0.853253    0.644226     0.004307
NI4290   NI        0.483270    0.889495    0.609444     0.004307
CU4291   CU        0.521260    0.862731    0.604298     0.006663
NI4292   NI        0.555602    0.864451    0.636704     0.004307
NI4293   NI        0.591644    0.860632    0.604352     0.004307
NI4294   NI        0.277641    0.067545    0.680039     0.004307
CU4295   CU        0.311186    0.069920    0.716637     0.006663
NI4296   NI        0.345083    0.065542    0.682407     0.004307
NI4297   NI        0.379377    0.036863    0.684487     0.004307
CU4298   CU        0.385198    0.068755    0.716184     0.006663
NI4299   NI        0.418110    0.067895    0.680000     0.004307
NI4300   NI        0.452825    0.038221    0.680079     0.004307
NI4301   NI        0.452526    0.066502    0.716595     0.004307
NI4302   NI        0.486220    0.068619    0.680852     0.004307
NI4303   NI        0.524680    0.036638    0.680862     0.004307
CU4304   CU        0.523365    0.070255    0.714359     0.006663
NI4305   NI        0.559093    0.070795    0.679916     0.004307
NI4306   NI        0.593379    0.069913    0.713168     0.004307
NI4307   NI        0.625296    0.071223    0.679164     0.004307
NI4308   NI        0.208664    0.133613    0.676612     0.004307
NI4309   NI        0.243916    0.100339    0.678705     0.004307
NI4310   NI        0.244114    0.136173    0.712322     0.004307
NI4311   NI        0.277849    0.104022    0.712406     0.004307
NI4312   NI        0.276925    0.133401    0.680079     0.004307
NI4313   NI        0.310978    0.098132    0.681142     0.004307
NI4314   NI        0.311932    0.134327    0.713201     0.004307
NI4315   NI        0.344440    0.100107    0.714343     0.004307
NI4316   NI        0.343413    0.133140    0.679851     0.004307
CU4317   CU        0.379507    0.099445    0.683516     0.006663
NI4318   NI        0.391418    0.156482    0.708015     0.004307
CU4319   CU        0.418008    0.099714    0.715582     0.006663
CU4320   CU        0.415518    0.128859    0.683671     0.006663
CU4321   CU        0.453631    0.098663    0.679610     0.006663
NI4322   NI        0.454050    0.129987    0.710299     0.004307
NI4323   NI        0.486774    0.099259    0.713265     0.004307
CU4324   CU        0.488615    0.130201    0.678673     0.006663
NI4325   NI        0.522378    0.100708    0.678562     0.004307
NI4326   NI        0.525185    0.131934    0.714230     0.004307
NI4327   NI        0.557117    0.102135    0.713665     0.004307
CU4328   CU        0.559672    0.135387    0.682990     0.006663
NI4329   NI        0.592772    0.102226    0.681393     0.004307
CU4330   CU        0.591660    0.135115    0.715291     0.006663
NI4331   NI        0.626218    0.104064    0.712913     0.004307
CU4332   CU        0.627173    0.135219    0.681604     0.006663
CU4333   CU        0.660561    0.104699    0.680408     0.006663
NI4334   NI        0.659688    0.137008    0.713983     0.004307
NI4335   NI        0.694246    0.137357    0.683441     0.004307
NI4336   NI        0.137537    0.201705    0.671220     0.004307
NI4337   NI        0.175468    0.167356    0.674377     0.004307
NI4338   NI        0.169820    0.197165    0.709328     0.004307
NI4339   NI        0.209349    0.169305    0.713278     0.004307
NI4340   NI        0.206969    0.200706    0.680228     0.004307
NI4341   NI        0.242498    0.168426    0.679157     0.004307
CU4342   CU        0.243530    0.199470    0.714029     0.006663
NI4343   NI        0.276968    0.167559    0.713655     0.004307
NI4344   NI        0.275799    0.200406    0.678790     0.004307
CU4345   CU        0.311089    0.167736    0.680442     0.006663
NI4346   NI        0.308390    0.203012    0.714872     0.004307
NI4347   NI        0.344385    0.168782    0.713585     0.004307
NI4348   NI        0.347855    0.199426    0.680653     0.004307
NI4349   NI        0.388832    0.183147    0.672520     0.004307
NI4350   NI        0.379261    0.200635    0.715554     0.004307
NI4351   NI        0.420946    0.186956    0.705328     0.004307
NI4352   NI        0.421895    0.214257    0.670653     0.004307
NI4353   NI        0.454596    0.181948    0.672396     0.004307
NI4354   NI        0.452170    0.215670    0.706901     0.004307
NI4355   NI        0.484582    0.183532    0.707060     0.004307
CU4356   CU        0.486255    0.214140    0.672695     0.006663
NI4357   NI        0.524931    0.167291    0.681850     0.004307
NI4358   NI        0.525170    0.201621    0.713751     0.004307
NI4359   NI        0.558413    0.168701    0.714244     0.004307
CU4360   CU        0.561067    0.200129    0.679851     0.006663
NI4361   NI        0.593897    0.165364    0.683251     0.004307
NI4362   NI        0.595826    0.203099    0.713414     0.004307
CU4363   CU        0.628218    0.169171    0.712673     0.006663
NI4364   NI        0.632108    0.204454    0.681839     0.004307
NI4365   NI        0.661363    0.168428    0.680291     0.004307
CU4366   CU        0.662164    0.203515    0.715692     0.006663
NI4367   NI        0.694236    0.172768    0.712612     0.004307
NI4368   NI        0.681429    0.209333    0.674439     0.004307
NI4369   NI        0.731927    0.167913    0.685762     0.004307
NI4370   NI        0.730739    0.205970    0.717368     0.004307
NI4371   NI        0.762947    0.205349    0.682220     0.004307
NI4372   NI        0.075240    0.268125    0.672908     0.004307
NI4373   NI        0.105491    0.233473    0.671483     0.004307
NI4374   NI        0.152409    0.282292    0.709847     0.004307
CU4375   CU        0.139856    0.235973    0.705110     0.006663
NI4376   NI        0.181252    0.273832    0.675864     0.004307
NI4377   NI        0.171078    0.230288    0.674461     0.004307
NI4378   NI        0.197775    0.284613    0.714434     0.004307
NI4379   NI        0.212398    0.244509    0.692551     0.004307
NI4380   NI        0.224213    0.283102    0.677559     0.004307
CU4381   CU        0.254746    0.249052    0.678640     0.006663
NI4382   NI        0.241544    0.269192    0.718344     0.004307
NI4383   NI        0.274803    0.232718    0.715772     0.004307
NI4384   NI        0.287466    0.281337    0.671641     0.004307
NI4385   NI        0.299870    0.238755    0.677209     0.004307
NI4386   NI        0.318961    0.277320    0.701301     0.004307
NI4387   NI        0.344944    0.233450    0.717132     0.004307
NI4388   NI        0.351559    0.279418    0.668185     0.004307
NI4389   NI        0.379991    0.236722    0.677938     0.004307
NI4390   NI        0.385829    0.278204    0.701469     0.004307
NI4391   NI        0.421017    0.247814    0.703443     0.004307
CU4392   CU        0.419683    0.281391    0.671935     0.006663
NI4393   NI        0.452981    0.246046    0.670080     0.004307
NI4394   NI        0.452921    0.281045    0.703878     0.004307
CU4395   CU        0.487929    0.247603    0.703978     0.006663
CU4396   CU        0.485677    0.280270    0.671284     0.006663
CU4397   CU        0.519782    0.248616    0.674101     0.006663
CU4398   CU        0.520136    0.280677    0.704892     0.006663
NI4399   NI        0.551688    0.247928    0.708303     0.004307
CU4400   CU        0.551657    0.280171    0.671385     0.006663
NI4401   NI        0.585626    0.245935    0.672518     0.004307
NI4402   NI        0.584507    0.280561    0.706196     0.004307
NI4403   NI        0.628708    0.236000    0.716687     0.004307
NI4404   NI        0.620656    0.280492    0.673583     0.004307
NI4405   NI        0.652567    0.246795    0.672405     0.004307
NI4406   NI        0.653517    0.281030    0.707092     0.004307
CU4407   CU        0.696150    0.236678    0.717459     0.006663
NI4408   NI        0.685722    0.281363    0.672248     0.004307
NI4409   NI        0.711813    0.242623    0.673544     0.004307
NI4410   NI        0.730075    0.267958    0.715458     0.004307
NI4411   NI        0.762430    0.238146    0.713598     0.004307
NI4412   NI        0.765421    0.270022    0.681963     0.004307
NI4413   NI        0.799293    0.235517    0.676802     0.004307
CU4414   CU        0.795746    0.270335    0.715531     0.006663
NI4415   NI        0.829856    0.271834    0.680216     0.004307
NI4416   NI        0.073280    0.312089    0.718510     0.004307
NI4417   NI        0.069128    0.342090    0.680744     0.004307
NI4418   NI        0.101164    0.307842    0.680587     0.004307
NI4419   NI        0.102981    0.344311    0.714291     0.004307
NI4420   NI        0.146012    0.325274    0.720821     0.004307
NI4421   NI        0.155274    0.343199    0.679634     0.004307
CU4422   CU        0.191339    0.315268    0.677749     0.006663
NI4423   NI        0.187407    0.346325    0.709816     0.004307
CU4424   CU        0.226538    0.316420    0.709365     0.006663
NI4425   NI        0.220947    0.348559    0.676683     0.004307
NI4426   NI        0.254064    0.314993    0.673255     0.004307
CU4427   CU        0.254699    0.348754    0.707050     0.006663
NI4428   NI        0.288067    0.315114    0.705062     0.004307
CU4429   CU        0.286569    0.347054    0.672229     0.006663
NI4430   NI        0.318497    0.312929    0.670152     0.004307
NI4431   NI        0.318357    0.347679    0.705624     0.004307
NI4432   NI        0.351755    0.310355    0.703423     0.004307
CU4433   CU        0.351847    0.347175    0.669074     0.006663
CU4434   CU        0.384475    0.312540    0.671225     0.006663
CU4435   CU        0.383648    0.344818    0.702192     0.006663
NI4436   NI        0.419130    0.313095    0.702891     0.004307
NI4437   NI        0.419777    0.346236    0.671466     0.004307
CU4438   CU        0.451927    0.312550    0.669711     0.006663
CU4439   CU        0.453083    0.346802    0.704348     0.006663
NI4440   NI        0.485749    0.312241    0.703880     0.004307
NI4441   NI        0.486153    0.345313    0.672217     0.004307
NI4442   NI        0.518018    0.313341    0.671519     0.004307
CU4443   CU        0.522736    0.348164    0.703642     0.006663
NI4444   NI        0.553041    0.314199    0.708860     0.004307
CU4445   CU        0.553468    0.346008    0.669427     0.006663
NI4446   NI        0.586524    0.310403    0.671727     0.004307
CU4447   CU        0.589006    0.346571    0.705885     0.006663
CU4448   CU        0.619392    0.312928    0.705648     0.006663
NI4449   NI        0.619498    0.347811    0.673850     0.004307
NI4450   NI        0.654681    0.315508    0.673492     0.004307
NI4451   NI        0.652283    0.348394    0.706272     0.004307
NI4452   NI        0.687507    0.314171    0.708352     0.004307
NI4453   NI        0.688991    0.346386    0.674265     0.004307
NI4454   NI        0.721176    0.313630    0.668882     0.004307
NI4455   NI        0.720675    0.347899    0.708197     0.004307
CU4456   CU        0.766473    0.305507    0.715741     0.006663
NI4457   NI        0.763760    0.335248    0.681502     0.004307
NI4458   NI        0.797507    0.305017    0.682670     0.004307
NI4459   NI        0.798596    0.338613    0.717185     0.004307
NI4460   NI        0.829845    0.304293    0.715793     0.004307
NI4461   NI        0.829282    0.338562    0.681050     0.004307
NI4462   NI        0.039642    0.380889    0.685012     0.004307
NI4463   NI        0.071827    0.375337    0.715191     0.004307
NI4464   NI        0.073872    0.408009    0.680828     0.004307
CU4465   CU        0.100147    0.374146    0.679216     0.006663
NI4466   NI        0.104421    0.407560    0.714513     0.004307
NI4467   NI        0.151025    0.373277    0.713829     0.004307
NI4468   NI        0.130714    0.407394    0.675759     0.004307
NI4469   NI        0.184792    0.377780    0.675552     0.004307
NI4470   NI        0.183211    0.406962    0.709989     0.004307
NI4471   NI        0.218959    0.380281    0.709234     0.004307
NI4472   NI        0.218208    0.411499    0.673157     0.004307
CU4473   CU        0.253295    0.381780    0.672528     0.006663
NI4474   NI        0.250543    0.413509    0.707702     0.004307
CU4475   CU        0.286050    0.380899    0.705857     0.006663
CU4476   CU        0.286953    0.413184    0.672054     0.006663
CU4477   CU        0.320108    0.382060    0.670480     0.006663
CU4478   CU        0.320468    0.415178    0.703996     0.006663
CU4479   CU        0.351792    0.381393    0.702735     0.006663
CU4480   CU        0.352845    0.414394    0.670939     0.006663
NI4481   NI        0.388358    0.379612    0.670094     0.004307
CU4482   CU        0.384495    0.415678    0.705524     0.006663
CU4483   CU        0.421117    0.379926    0.703394     0.006663
CU4484   CU        0.420709    0.411334    0.669272     0.006663
CU4485   CU        0.451285    0.378437    0.669565     0.006663
CU4486   CU        0.451751    0.413041    0.704389     0.006663
NI4487   NI        0.486715    0.380566    0.704259     0.004307
CU4488   CU        0.485534    0.412639    0.670938     0.006663
CU4489   CU        0.517191    0.379790    0.670951     0.006663
CU4490   CU        0.518533    0.414029    0.703591     0.006663
CU4491   CU        0.553336    0.382657    0.702622     0.006663
CU4492   CU        0.553534    0.414406    0.670269     0.006663
CU4493   CU        0.586910    0.378420    0.670688     0.006663
CU4494   CU        0.588357    0.411998    0.704755     0.006663
NI4495   NI        0.619561    0.380191    0.705802     0.004307
NI4496   NI        0.620950    0.413552    0.672690     0.004307
NI4497   NI        0.655733    0.382172    0.672602     0.004307
NI4498   NI        0.654523    0.413419    0.705929     0.004307
NI4499   NI        0.689415    0.381253    0.704434     0.004307
NI4500   NI        0.688486    0.414273    0.670481     0.004307
NI4501   NI        0.724593    0.380147    0.673431     0.004307
NI4502   NI        0.719825    0.418048    0.703822     0.004307
CU4503   CU        0.766190    0.372383    0.715485     0.006663
NI4504   NI        0.755700    0.417220    0.671510     0.004307
NI4505   NI        0.798177    0.370742    0.682982     0.004307
CU4506   CU        0.799876    0.409315    0.716021     0.006663
NI4507   NI        0.828514    0.374471    0.715430     0.004307
NI4508   NI        0.829108    0.407703    0.682512     0.004307
NI4509   NI        0.860812    0.373245    0.682471     0.004307
NI4510   NI        0.010543    0.446913    0.645214     0.004307
NI4511   NI        0.077497    0.446893    0.715325     0.004307
NI4512   NI        0.071996    0.484177    0.681159     0.004307
NI4513   NI        0.106630    0.444090    0.679533     0.004307
NI4514   NI        0.105696    0.482690    0.716533     0.004307
NI4515   NI        0.140205    0.449066    0.719516     0.004307
NI4516   NI        0.136754    0.483642    0.682249     0.004307
NI4517   NI        0.173342    0.450282    0.686294     0.004307
CU4518   CU        0.171210    0.484985    0.717367     0.006663
NI4519   NI        0.217035    0.445149    0.705139     0.004307
NI4520   NI        0.207615    0.485742    0.684815     0.004307
NI4521   NI        0.251623    0.443330    0.673277     0.004307
NI4522   NI        0.249267    0.475955    0.704953     0.004307
CU4523   CU        0.283673    0.446644    0.704494     0.006663
NI4524   NI        0.284775    0.478307    0.672220     0.004307
CU4525   CU        0.318694    0.448059    0.670433     0.006663
CU4526   CU        0.315635    0.479412    0.704559     0.006663
CU4527   CU        0.351989    0.447312    0.703725     0.006663
CU4528   CU        0.350650    0.481336    0.670977     0.006663
CU4529   CU        0.386971    0.447426    0.670954     0.006663
CU4530   CU        0.386310    0.480157    0.703552     0.006663
CU4531   CU        0.419754    0.444440    0.702548     0.006663
CU4532   CU        0.420412    0.480198    0.669414     0.006663
NI4533   NI        0.453476    0.447797    0.669309     0.004307
CU4534   CU        0.451536    0.477872    0.703126     0.006663
CU4535   CU        0.485226    0.447825    0.706025     0.006663
CU4536   CU        0.485675    0.480282    0.669648     0.006663
CU4537   CU        0.519021    0.446926    0.669980     0.006663
CU4538   CU        0.519977    0.480474    0.705962     0.006663
CU4539   CU        0.553594    0.448402    0.704478     0.006663
CU4540   CU        0.551583    0.478399    0.669403     0.006663
CU4541   CU        0.585755    0.444694    0.670548     0.006663
NI4542   NI        0.584093    0.483509    0.703339     0.004307
NI4543   NI        0.619678    0.448441    0.703854     0.004307
CU4544   CU        0.618303    0.479946    0.670008     0.006663
CU4545   CU        0.652210    0.447981    0.669352     0.006663
NI4546   NI        0.650959    0.480559    0.701873     0.004307
NI4547   NI        0.685110    0.448173    0.701105     0.004307
NI4548   NI        0.687068    0.481583    0.670015     0.004307
NI4549   NI        0.721220    0.448608    0.670453     0.004307
NI4550   NI        0.732070    0.487505    0.717701     0.004307
NI4551   NI        0.756187    0.447996    0.703818     0.004307
NI4552   NI        0.769461    0.485837    0.682675     0.004307
NI4553   NI        0.797221    0.443248    0.682947     0.004307
NI4554   NI        0.799215    0.483980    0.717033     0.004307
CU4555   CU        0.829581    0.444733    0.714778     0.006663
NI4556   NI        0.829936    0.483927    0.683137     0.004307
NI4557   NI        0.858632    0.442898    0.679779     0.004307
NI4558   NI        0.039867    0.516683    0.680306     0.004307
NI4559   NI        0.071085    0.515013    0.714423     0.004307
NI4560   NI        0.073011    0.550864    0.680897     0.004307
NI4561   NI        0.103489    0.517688    0.682319     0.004307
NI4562   NI        0.105409    0.550949    0.716065     0.004307
CU4563   CU        0.137656    0.518656    0.715427     0.006663
CU4564   CU        0.137257    0.552131    0.679868     0.006663
CU4565   CU        0.168628    0.519183    0.680445     0.006663
NI4566   NI        0.171594    0.552704    0.714797     0.004307
NI4567   NI        0.206410    0.518344    0.717816     0.004307
CU4568   CU        0.202448    0.554049    0.681105     0.006663
CU4569   CU        0.248353    0.513291    0.669777     0.006663
NI4570   NI        0.249864    0.546962    0.699715     0.004307
NI4571   NI        0.283639    0.514116    0.702225     0.004307
CU4572   CU        0.283369    0.548806    0.669955     0.006663
CU4573   CU        0.317440    0.512177    0.670616     0.006663
NI4574   NI        0.317341    0.543172    0.702549     0.004307
CU4575   CU        0.351242    0.512629    0.702623     0.006663
CU4576   CU        0.350249    0.545179    0.669111     0.006663
CU4577   CU        0.387283    0.511589    0.669305     0.006663
CU4578   CU        0.384256    0.546489    0.701474     0.006663
CU4579   CU        0.419521    0.512657    0.702984     0.006663
CU4580   CU        0.419137    0.545470    0.668402     0.006663
CU4581   CU        0.452078    0.512835    0.669446     0.006663
NI4582   NI        0.452223    0.548040    0.701348     0.004307
CU4583   CU        0.484490    0.511745    0.701739     0.006663
CU4584   CU        0.485523    0.548183    0.669021     0.006663
CU4585   CU        0.518926    0.515234    0.672015     0.006663
CU4586   CU        0.517927    0.548234    0.701978     0.006663
CU4587   CU        0.551697    0.513355    0.704005     0.006663
CU4588   CU        0.551642    0.547957    0.669553     0.006663
CU4589   CU        0.585285    0.514205    0.669479     0.006663
CU4590   CU        0.587726    0.546367    0.706817     0.006663
NI4591   NI        0.619154    0.513849    0.707813     0.004307
NI4592   NI        0.617813    0.547459    0.672280     0.004307
NI4593   NI        0.651988    0.511611    0.669116     0.004307
CU4594   CU        0.653320    0.543961    0.705543     0.006663
NI4595   NI        0.686166    0.509967    0.707083     0.004307
CU4596   CU        0.683020    0.544408    0.671931     0.006663
NI4597   NI        0.736327    0.518489    0.684913     0.004307
NI4598   NI        0.735057    0.551892    0.715914     0.004307
NI4599   NI        0.766520    0.519404    0.718369     0.004307
NI4600   NI        0.766939    0.552392    0.680033     0.004307
CU4601   CU        0.799862    0.519644    0.682494     0.006663
NI4602   NI        0.797290    0.552168    0.716149     0.004307
NI4603   NI        0.829309    0.514942    0.715575     0.004307
CU4604   CU        0.831013    0.552510    0.682365     0.006663
NI4605   NI        0.860549    0.516916    0.681417     0.004307
NI4606   NI        0.075620    0.588165    0.712806     0.004307
CU4607   CU        0.074739    0.621268    0.680430     0.006663
CU4608   CU        0.106031    0.586670    0.680039     0.006663
NI4609   NI        0.109194    0.621133    0.711884     0.004307
NI4610   NI        0.138676    0.586240    0.715430     0.004307
NI4611   NI        0.139266    0.620523    0.681154     0.004307
NI4612   NI        0.170228    0.585606    0.679149     0.004307
NI4613   NI        0.173295    0.620846    0.713371     0.004307
CU4614   CU        0.207291    0.588245    0.713267     0.006663
NI4615   NI        0.205620    0.624989    0.679164     0.004307
NI4616   NI        0.253148    0.581658    0.669631     0.004307
CU4617   CU        0.238915    0.621784    0.715805     0.006663
CU4618   CU        0.284862    0.581009    0.702952     0.006663
NI4619   NI        0.288459    0.610856    0.670252     0.004307
NI4620   NI        0.319202    0.577779    0.669560     0.004307
NI4621   NI        0.319349    0.611666    0.702114     0.004307
NI4622   NI        0.353465    0.579508    0.701163     0.004307
NI4623   NI        0.353366    0.613911    0.667054     0.004307
NI4624   NI        0.386269    0.578157    0.667930     0.004307
NI4625   NI        0.386461    0.610424    0.700737     0.004307
NI4626   NI        0.419896    0.579302    0.702058     0.004307
CU4627   CU        0.419482    0.615129    0.668047     0.006663
NI4628   NI        0.451780    0.580931    0.668142     0.004307
CU4629   CU        0.451821    0.616590    0.702521     0.006663
NI4630   NI        0.486330    0.581307    0.702655     0.004307
CU4631   CU        0.486114    0.613420    0.669963     0.006663
CU4632   CU        0.521045    0.583154    0.673179     0.006663
CU4633   CU        0.518125    0.616530    0.705899     0.006663
NI4634   NI        0.551371    0.580450    0.706611     0.004307
NI4635   NI        0.553106    0.615239    0.674754     0.004307
NI4636   NI        0.585382    0.580106    0.672413     0.004307
CU4637   CU        0.587096    0.615152    0.704211     0.006663
CU4638   CU        0.622178    0.577343    0.708159     0.006663
NI4639   NI        0.619665    0.614341    0.672807     0.004307
NI4640   NI        0.654573    0.582123    0.673221     0.004307
NI4641   NI        0.653035    0.614274    0.705916     0.004307
NI4642   NI        0.689858    0.573286    0.706762     0.004307
NI4643   NI        0.687004    0.614774    0.671391     0.004307
NI4644   NI        0.736534    0.586023    0.682955     0.004307
CU4645   CU        0.732004    0.616482    0.713787     0.006663
NI4646   NI        0.767390    0.586232    0.714808     0.004307
NI4647   NI        0.767017    0.619747    0.679372     0.004307
NI4648   NI        0.801656    0.585984    0.680459     0.004307
NI4649   NI        0.799057    0.618673    0.713455     0.004307
CU4650   CU        0.832571    0.583132    0.716044     0.006663
NI4651   NI        0.830751    0.619576    0.681578     0.004307
NI4652   NI        0.108628    0.653668    0.678808     0.004307
NI4653   NI        0.142439    0.655334    0.710950     0.004307
NI4654   NI        0.144033    0.691742    0.681303     0.004307
NI4655   NI        0.173055    0.657973    0.680690     0.004307
NI4656   NI        0.177842    0.688732    0.711681     0.004307
NI4657   NI        0.206746    0.655669    0.715131     0.004307
NI4658   NI        0.207545    0.689493    0.679436     0.004307
NI4659   NI        0.239233    0.658278    0.680938     0.004307
NI4660   NI        0.239926    0.690337    0.715432     0.004307
NI4661   NI        0.274034    0.659779    0.716287     0.004307
NI4662   NI        0.272467    0.689713    0.680640     0.004307
CU4663   CU        0.318937    0.647179    0.668293     0.006663
NI4664   NI        0.310800    0.692066    0.714809     0.004307
NI4665   NI        0.352799    0.645560    0.700604     0.004307
NI4666   NI        0.350387    0.679225    0.669488     0.004307
CU4667   CU        0.385239    0.647399    0.667472     0.006663
NI4668   NI        0.382205    0.694634    0.720455     0.004307
NI4669   NI        0.419514    0.648752    0.700367     0.004307
NI4670   NI        0.420506    0.680888    0.669811     0.004307
CU4671   CU        0.452433    0.646658    0.668054     0.006663
NI4672   NI        0.451778    0.680335    0.703483     0.004307
NI4673   NI        0.483272    0.646735    0.703393     0.004307
NI4674   NI        0.485207    0.678940    0.667812     0.004307
NI4675   NI        0.518940    0.649513    0.672509     0.004307
NI4676   NI        0.524231    0.694596    0.717219     0.004307
NI4677   NI        0.554981    0.647635    0.704752     0.004307
NI4678   NI        0.555143    0.685912    0.676646     0.004307
NI4679   NI        0.590648    0.649332    0.674222     0.004307
NI4680   NI        0.591203    0.681097    0.709861     0.004307
NI4681   NI        0.622644    0.648767    0.709000     0.004307
CU4682   CU        0.622887    0.683666    0.676496     0.006663
CU4683   CU        0.652537    0.648137    0.674577     0.006663
CU4684   CU        0.658301    0.679208    0.707005     0.006663
NI4685   NI        0.696498    0.652998    0.712593     0.004307
NI4686   NI        0.688726    0.677041    0.672709     0.004307
NI4687   NI        0.734288    0.653943    0.680317     0.004307
NI4688   NI        0.734189    0.685193    0.714872     0.004307
CU4689   CU        0.764791    0.649113    0.714116     0.006663
NI4690   NI        0.766730    0.684086    0.678840     0.004307
NI4691   NI        0.797483    0.651610    0.679685     0.004307
NI4692   NI        0.174869    0.724433    0.677527     0.004307
NI4693   NI        0.210021    0.725030    0.710178     0.004307
NI4694   NI        0.209305    0.757937    0.678404     0.004307
NI4695   NI        0.243791    0.724330    0.680546     0.004307
NI4696   NI        0.244266    0.756961    0.711708     0.004307
CU4697   CU        0.277729    0.722030    0.713115     0.006663
NI4698   NI        0.277341    0.758084    0.678945     0.004307
NI4699   NI        0.316783    0.709505    0.670236     0.004307
NI4700   NI        0.313207    0.757878    0.712845     0.004307
NI4701   NI        0.349269    0.728004    0.716172     0.004307
NI4702   NI        0.348458    0.759607    0.684854     0.004307
NI4703   NI        0.383095    0.729066    0.681509     0.004307
NI4704   NI        0.380298    0.760673    0.718169     0.004307
NI4705   NI        0.412184    0.728955    0.716557     0.004307
CU4706   CU        0.415219    0.761997    0.685338     0.006663
NI4707   NI        0.452667    0.712410    0.670996     0.004307
CU4708   CU        0.452719    0.760233    0.715541     0.006663
NI4709   NI        0.486794    0.727822    0.720148     0.004307
NI4710   NI        0.489698    0.757638    0.684695     0.004307
NI4711   NI        0.524718    0.728756    0.683974     0.004307
NI4712   NI        0.520664    0.758945    0.717601     0.004307
NI4713   NI        0.556236    0.727785    0.720020     0.004307
CU4714   CU        0.557537    0.758505    0.686234     0.006663
NI4715   NI        0.591761    0.722272    0.679669     0.004307
NI4716   NI        0.597445    0.752077    0.710966     0.004307
NI4717   NI        0.626251    0.714544    0.706295     0.004307
NI4718   NI        0.630378    0.749203    0.676292     0.004307
CU4719   CU        0.658592    0.713973    0.674251     0.006663
NI4720   NI        0.662009    0.745051    0.707422     0.004307
NI4721   NI        0.700393    0.722533    0.716824     0.004307
NI4722   NI        0.695749    0.740209    0.674929     0.004307
NI4723   NI        0.734594    0.718708    0.684958     0.004307
NI4724   NI        0.243892    0.790454    0.677712     0.004307
NI4725   NI        0.280293    0.789716    0.713166     0.004307
NI4726   NI        0.279193    0.823433    0.679818     0.004307
NI4727   NI        0.312537    0.790931    0.680332     0.004307
NI4728   NI        0.312325    0.821440    0.711811     0.004307
NI4729   NI        0.346114    0.793162    0.715233     0.004307
NI4730   NI        0.346071    0.824675    0.678285     0.004307
CU4731   CU        0.380860    0.790948    0.682339     0.006663
NI4732   NI        0.383680    0.822315    0.714119     0.004307
NI4733   NI        0.416922    0.792144    0.715432     0.004307
NI4734   NI        0.416407    0.824470    0.680933     0.004307
NI4735   NI        0.451330    0.792463    0.681288     0.004307
NI4736   NI        0.450698    0.820708    0.716711     0.004307
NI4737   NI        0.485751    0.791343    0.716515     0.004307
NI4738   NI        0.483672    0.823994    0.681423     0.004307
NI4739   NI        0.520904    0.791126    0.681732     0.004307
NI4740   NI        0.514950    0.823174    0.713624     0.004307
NI4741   NI        0.552470    0.793745    0.717897     0.004307
NI4742   NI        0.567266    0.816976    0.681495     0.004307
NI4743   NI        0.604004    0.783855    0.679232     0.004307
NI4744   NI        0.592313    0.827385    0.718824     0.004307
CU4745   CU        0.619698    0.791310    0.719612     0.006663
NI4746   NI        0.621680    0.824485    0.685706     0.004307
NI4747   NI        0.649531    0.788568    0.684383     0.004307
NI4748   NI        0.382160    0.857255    0.681649     0.004307
NI4749   NI        0.449241    0.855839    0.678712     0.004307
NI4750   NI        0.513441    0.858616    0.678342     0.004307
CU4751   CU        0.416680    0.069346    0.749476     0.006663
NI4752   NI        0.487603    0.069109    0.746594     0.004307
NI4753   NI        0.278069    0.135593    0.747541     0.004307
CU4754   CU        0.311949    0.104365    0.748603     0.006663
NI4755   NI        0.314299    0.136528    0.781974     0.004307
NI4756   NI        0.343712    0.104016    0.784139     0.004307
NI4757   NI        0.348289    0.133249    0.747263     0.004307
NI4758   NI        0.380570    0.099690    0.751790     0.004307
NI4759   NI        0.378686    0.132091    0.782739     0.004307
NI4760   NI        0.416739    0.105670    0.780535     0.004307
CU4761   CU        0.438690    0.145862    0.748813     0.006663
NI4762   NI        0.453379    0.100830    0.748052     0.004307
NI4763   NI        0.454330    0.129112    0.786262     0.004307
NI4764   NI        0.491868    0.103326    0.785455     0.004307
NI4765   NI        0.485509    0.132365    0.747393     0.004307
NI4766   NI        0.523336    0.101927    0.748895     0.004307
NI4767   NI        0.526751    0.136459    0.783786     0.004307
NI4768   NI        0.557947    0.101361    0.782114     0.004307
CU4769   CU        0.559054    0.133408    0.748376     0.006663
NI4770   NI        0.595025    0.103600    0.745593     0.004307
NI4771   NI        0.589378    0.135767    0.780823     0.004307
CU4772   CU        0.624917    0.139033    0.748658     0.006663
NI4773   NI        0.204031    0.215940    0.725979     0.004307
NI4774   NI        0.246923    0.168092    0.747431     0.004307
NI4775   NI        0.246492    0.202142    0.786495     0.004307
NI4776   NI        0.281695    0.169430    0.778742     0.004307
NI4777   NI        0.277648    0.204120    0.750748     0.004307
NI4778   NI        0.313846    0.167307    0.746415     0.004307
NI4779   NI        0.312740    0.202484    0.782726     0.004307
NI4780   NI        0.346029    0.169367    0.781022     0.004307
CU4781   CU        0.344898    0.201989    0.749454     0.006663
NI4782   NI        0.376589    0.167816    0.750360     0.004307
NI4783   NI        0.375459    0.203961    0.786152     0.004307
NI4784   NI        0.431732    0.187212    0.782465     0.004307
NI4785   NI        0.420947    0.217923    0.739467     0.004307
NI4786   NI        0.455372    0.187393    0.743510     0.004307
NI4787   NI        0.453548    0.224507    0.769801     0.004307
NI4788   NI        0.477844    0.188209    0.780086     0.004307
NI4789   NI        0.488832    0.213767    0.742326     0.004307
CU4790   CU        0.518439    0.179085    0.759481     0.006663
NI4791   NI        0.516387    0.222821    0.778178     0.004307
NI4792   NI        0.557802    0.168232    0.784075     0.004307
NI4793   NI        0.550701    0.217822    0.748876     0.004307
NI4794   NI        0.593891    0.170240    0.747188     0.004307
NI4795   NI        0.592403    0.204059    0.784720     0.004307
NI4796   NI        0.625984    0.172734    0.781108     0.004307
NI4797   NI        0.626458    0.202071    0.747558     0.004307
NI4798   NI        0.658348    0.170576    0.745937     0.004307
NI4799   NI        0.657970    0.204558    0.780382     0.004307
NI4800   NI        0.695972    0.203868    0.750329     0.004307
NI4801   NI        0.146447    0.272244    0.753060     0.004307
NI4802   NI        0.177096    0.239534    0.754389     0.004307
NI4803   NI        0.180258    0.274825    0.784317     0.004307
NI4804   NI        0.212429    0.237505    0.783025     0.004307
CU4805   CU        0.212286    0.271341    0.752617     0.006663
NI4806   NI        0.243463    0.234303    0.750451     0.004307
NI4807   NI        0.243434    0.273312    0.782745     0.004307
CU4808   CU        0.278953    0.235767    0.785922     0.006663
NI4809   NI        0.275324    0.266763    0.749083     0.004307
NI4810   NI        0.312316    0.233877    0.751530     0.004307
NI4811   NI        0.310005    0.269932    0.785645     0.004307
NI4812   NI        0.343868    0.234209    0.784667     0.004307
NI4813   NI        0.352144    0.276705    0.732690     0.004307
NI4814   NI        0.378400    0.235035    0.753452     0.004307
NI4815   NI        0.381623    0.267878    0.787892     0.004307
NI4816   NI        0.411060    0.233696    0.784912     0.004307
CU4817   CU        0.420995    0.282197    0.734508     0.006663
NI4818   NI        0.454887    0.250367    0.735412     0.004307
NI4819   NI        0.452560    0.285612    0.770518     0.004307
NI4820   NI        0.486575    0.254502    0.771829     0.004307
NI4821   NI        0.485971    0.283066    0.735773     0.004307
NI4822   NI        0.516801    0.251751    0.739709     0.004307
NI4823   NI        0.528313    0.266271    0.782026     0.004307
NI4824   NI        0.562315    0.239042    0.787703     0.004307
NI4825   NI        0.551867    0.281200    0.741310     0.004307
CU4826   CU        0.594270    0.234006    0.749120     0.006663
CU4827   CU        0.594654    0.272037    0.785736     0.006663
NI4828   NI        0.625321    0.237237    0.782887     0.004307
CU4829   CU        0.629175    0.268289    0.751737     0.006663
NI4830   NI        0.661844    0.236926    0.749138     0.004307
NI4831   NI        0.662842    0.270525    0.783127     0.004307
NI4832   NI        0.696297    0.237114    0.784429     0.004307
NI4833   NI        0.696721    0.272044    0.750884     0.004307
NI4834   NI        0.725860    0.236552    0.749304     0.004307
NI4835   NI        0.726455    0.270708    0.784860     0.004307
CU4836   CU        0.762979    0.273030    0.745672     0.006663
NI4837   NI        0.112248    0.294279    0.727447     0.004307
NI4838   NI        0.072364    0.345237    0.750620     0.004307
NI4839   NI        0.132036    0.311657    0.764541     0.004307
NI4840   NI        0.146359    0.353389    0.756370     0.004307
NI4841   NI        0.177999    0.303014    0.750525     0.004307
CU4842   CU        0.177819    0.336862    0.787694     0.006663
NI4843   NI        0.210469    0.307027    0.783612     0.004307
NI4844   NI        0.209969    0.338172    0.752253     0.004307
NI4845   NI        0.245450    0.304231    0.751977     0.004307
NI4846   NI        0.241165    0.338288    0.782903     0.004307
NI4847   NI        0.277125    0.304955    0.785531     0.004307
NI4848   NI        0.283490    0.348169    0.743021     0.004307
NI4849   NI        0.320201    0.312678    0.740593     0.004307
CU4850   CU        0.321543    0.346449    0.773775     0.006663
NI4851   NI        0.345173    0.305633    0.787906     0.004307
NI4852   NI        0.351000    0.348044    0.735266     0.004307
NI4853   NI        0.386705    0.312667    0.734888     0.004307
NI4854   NI        0.388095    0.347626    0.766914     0.004307
NI4855   NI        0.419732    0.314827    0.766510     0.004307
NI4856   NI        0.417042    0.347431    0.734339     0.004307
CU4857   CU        0.452996    0.315359    0.735735     0.006663
NI4858   NI        0.452240    0.350858    0.770873     0.004307
CU4859   CU        0.483379    0.317309    0.768208     0.006663
NI4860   NI        0.482362    0.349992    0.737800     0.004307
NI4861   NI        0.517400    0.314630    0.737784     0.004307
NI4862   NI        0.518640    0.348324    0.771627     0.004307
NI4863   NI        0.561099    0.303815    0.783755     0.004307
NI4864   NI        0.554391    0.347827    0.741207     0.004307
CU4865   CU        0.587326    0.314714    0.741343     0.006663
NI4866   NI        0.586322    0.349201    0.774738     0.004307
NI4867   NI        0.632104    0.304529    0.784017     0.004307
NI4868   NI        0.619880    0.346951    0.742575     0.004307
NI4869   NI        0.665340    0.302980    0.751433     0.004307
NI4870   NI        0.663789    0.337341    0.784017     0.004307
CU4871   CU        0.695723    0.307001    0.784089     0.006663
NI4872   NI        0.697113    0.337389    0.751056     0.004307
NI4873   NI        0.729489    0.305227    0.752598     0.004307
NI4874   NI        0.727169    0.340980    0.785089     0.004307
NI4875   NI        0.770617    0.295286    0.816619     0.004307
NI4876   NI        0.765779    0.341076    0.750772     0.004307
NI4877   NI        0.797435    0.305235    0.747970     0.004307
NI4878   NI        0.798703    0.341544    0.781602     0.004307
NI4879   NI        0.072706    0.411169    0.747227     0.004307
NI4880   NI        0.105523    0.378837    0.752335     0.004307
NI4881   NI        0.105966    0.413603    0.780927     0.004307
NI4882   NI        0.136919    0.383584    0.788838     0.004307
CU4883   CU        0.137311    0.414314    0.751397     0.006663
NI4884   NI        0.185562    0.379032    0.744891     0.004307
NI4885   NI        0.173161    0.413430    0.784372     0.004307
CU4886   CU        0.208588    0.373867    0.785647     0.006663
CU4887   CU        0.218441    0.414432    0.742939     0.006663
CU4888   CU        0.251334    0.381431    0.741401     0.006663
NI4889   NI        0.239549    0.407704    0.784493     0.004307
NI4890   NI        0.271877    0.372104    0.781645     0.004307
CU4891   CU        0.285010    0.415365    0.736410     0.006663
NI4892   NI        0.320520    0.382034    0.737669     0.004307
NI4893   NI        0.316419    0.414822    0.769719     0.004307
NI4894   NI        0.351970    0.379456    0.768245     0.004307
NI4895   NI        0.351726    0.414190    0.737460     0.004307
NI4896   NI        0.385084    0.381622    0.735828     0.004307
NI4897   NI        0.383702    0.412930    0.769482     0.004307
CU4898   CU        0.419230    0.381785    0.768868     0.006663
CU4899   CU        0.419792    0.413981    0.738147     0.006663
NI4900   NI        0.452106    0.381707    0.737416     0.004307
NI4901   NI        0.452436    0.411748    0.770849     0.004307
CU4902   CU        0.488514    0.378393    0.772015     0.006663
CU4903   CU        0.485519    0.415412    0.739546     0.006663
NI4904   NI        0.521232    0.383847    0.738459     0.004307
NI4905   NI        0.523188    0.415300    0.773420     0.004307
NI4906   NI        0.555165    0.381554    0.770983     0.004307
CU4907   CU        0.553456    0.414604    0.738000     0.006663
NI4908   NI        0.587248    0.380383    0.739092     0.004307
CU4909   CU        0.586157    0.415942    0.770136     0.006663
NI4910   NI        0.627615    0.371262    0.785372     0.004307
NI4911   NI        0.619602    0.415140    0.737816     0.004307
NI4912   NI        0.651887    0.380606    0.740508     0.004307
NI4913   NI        0.660759    0.404951    0.785670     0.004307
CU4914   CU        0.693828    0.372584    0.786289     0.006663
NI4915   NI        0.686338    0.413612    0.737153     0.004307
NI4916   NI        0.725876    0.385353    0.737083     0.004307
NI4917   NI        0.733658    0.412297    0.780835     0.004307
NI4918   NI        0.765064    0.373255    0.785254     0.004307
NI4919   NI        0.765027    0.409032    0.750341     0.004307
NI4920   NI        0.797733    0.377024    0.749461     0.004307
NI4921   NI        0.796590    0.409471    0.781522     0.004307
NI4922   NI        0.830095    0.414460    0.748976     0.004307
NI4923   NI        0.075319    0.480855    0.748870     0.004307
NI4924   NI        0.107702    0.449259    0.750056     0.004307
CU4925   CU        0.106828    0.484818    0.782907     0.006663
CU4926   CU        0.140492    0.450196    0.784248     0.006663
NI4927   NI        0.140037    0.482890    0.751800     0.004307
NI4928   NI        0.171724    0.450636    0.750653     0.004307
NI4929   NI        0.174487    0.483876    0.785281     0.004307
NI4930   NI        0.206458    0.448794    0.783617     0.004307
NI4931   NI        0.204343    0.485722    0.751331     0.004307
CU4932   CU        0.250140    0.446049    0.738383     0.006663
NI4933   NI        0.240358    0.483438    0.786037     0.004307
NI4934   NI        0.284441    0.445214    0.770006     0.004307
NI4935   NI        0.283277    0.478703    0.736302     0.004307
NI4936   NI        0.318449    0.446236    0.738398     0.004307
NI4937   NI        0.315980    0.478249    0.769022     0.004307
NI4938   NI        0.351562    0.446852    0.767353     0.004307
NI4939   NI        0.350094    0.480052    0.736446     0.004307
NI4940   NI        0.387339    0.448514    0.738660     0.004307
NI4941   NI        0.386647    0.479221    0.771128     0.004307
NI4942   NI        0.419596    0.445927    0.772269     0.004307
CU4943   CU        0.421890    0.479247    0.736291     0.006663
CU4944   CU        0.453885    0.445499    0.737501     0.006663
CU4945   CU        0.452866    0.477728    0.771400     0.006663
CU4946   CU        0.488208    0.447810    0.772532     0.006663
NI4947   NI        0.486570    0.477993    0.738840     0.004307
NI4948   NI        0.520506    0.447447    0.738962     0.004307
CU4949   CU        0.519983    0.480569    0.774906     0.006663
NI4950   NI        0.555530    0.449670    0.774710     0.004307
NI4951   NI        0.552887    0.482295    0.737849     0.004307
CU4952   CU        0.585175    0.448404    0.737448     0.006663
NI4953   NI        0.587433    0.481228    0.773650     0.004307
NI4954   NI        0.618276    0.447470    0.768674     0.004307
CU4955   CU        0.617256    0.482580    0.740678     0.006663
CU4956   CU        0.653362    0.448749    0.734065     0.006663
CU4957   CU        0.662266    0.491962    0.782229     0.006663
CU4958   CU        0.660500    0.446723    0.775940     0.006663
NI4959   NI        0.701458    0.486643    0.751553     0.004307
NI4960   NI        0.735133    0.447856    0.747813     0.004307
NI4961   NI        0.733122    0.484909    0.782566     0.004307
NI4962   NI        0.764845    0.448212    0.781679     0.004307
NI4963   NI        0.764888    0.482473    0.750960     0.004307
CU4964   CU        0.797282    0.444085    0.749464     0.006663
NI4965   NI        0.797842    0.480026    0.782047     0.004307
NI4966   NI        0.831270    0.482033    0.746862     0.004307
NI4967   NI        0.106723    0.516118    0.752001     0.004307
NI4968   NI        0.109964    0.552964    0.778469     0.004307
NI4969   NI        0.140818    0.518126    0.785169     0.004307
CU4970   CU        0.141665    0.554162    0.748535     0.006663
CU4971   CU        0.172000    0.519255    0.748079     0.006663
NI4972   NI        0.175000    0.552742    0.782403     0.004307
NI4973   NI        0.208745    0.517310    0.784317     0.004307
NI4974   NI        0.208118    0.551885    0.751448     0.004307
NI4975   NI        0.240094    0.517429    0.751080     0.004307
CU4976   CU        0.241289    0.552919    0.783989     0.006663
NI4977   NI        0.272342    0.518329    0.784778     0.004307
NI4978   NI        0.283679    0.548863    0.733972     0.004307
NI4979   NI        0.315160    0.513954    0.735401     0.004307
NI4980   NI        0.309324    0.551606    0.788198     0.004307
NI4981   NI        0.345449    0.522359    0.791191     0.004307
NI4982   NI        0.352146    0.545602    0.732135     0.004307
NI4983   NI        0.386531    0.512581    0.734582     0.004307
NI4984   NI        0.387311    0.543015    0.765467     0.004307
NI4985   NI        0.420532    0.511959    0.769860     0.004307
NI4986   NI        0.419588    0.546445    0.734861     0.004307
CU4987   CU        0.452743    0.513833    0.737315     0.006663
NI4988   NI        0.450972    0.545299    0.768477     0.004307
CU4989   CU        0.483915    0.515161    0.773547     0.006663
NI4990   NI        0.485688    0.546009    0.736882     0.004307
NI4991   NI        0.518182    0.512500    0.738366     0.004307
NI4992   NI        0.516691    0.547535    0.770498     0.004307
NI4993   NI        0.550576    0.512930    0.773545     0.004307
NI4994   NI        0.550285    0.545987    0.740872     0.004307
NI4995   NI        0.584313    0.513229    0.739840     0.004307
CU4996   CU        0.593076    0.554253    0.787584     0.006663
NI4997   NI        0.621385    0.510307    0.777337     0.004307
NI4998   NI        0.618303    0.545085    0.741924     0.004307
NI4999   NI        0.651911    0.510600    0.738764     0.004307
CU5000   CU        0.662363    0.556348    0.782983     0.006663
NI5001   NI        0.699063    0.516616    0.784730     0.004307
NI5002   NI        0.695051    0.554563    0.751039     0.004307
CU5003   CU        0.734255    0.517560    0.749910     0.006663
CU5004   CU        0.731504    0.549985    0.782229     0.006663
NI5005   NI        0.766948    0.516871    0.783529     0.004307
NI5006   NI        0.766319    0.551782    0.749619     0.004307
NI5007   NI        0.799789    0.516757    0.750914     0.004307
CU5008   CU        0.795370    0.551544    0.782509     0.006663
NI5009   NI        0.108638    0.588529    0.747333     0.004307
NI5010   NI        0.141048    0.586815    0.780604     0.004307
NI5011   NI        0.142099    0.619875    0.746582     0.004307
CU5012   CU        0.174686    0.584908    0.746857     0.006663
NI5013   NI        0.175285    0.617875    0.780762     0.004307
CU5014   CU        0.208809    0.586632    0.783884     0.006663
NI5015   NI        0.206975    0.620549    0.748055     0.004307
NI5016   NI        0.240552    0.588755    0.749217     0.004307
NI5017   NI        0.241432    0.621316    0.782128     0.004307
NI5018   NI        0.276569    0.586955    0.782903     0.004307
NI5019   NI        0.273588    0.622558    0.751986     0.004307
CU5020   CU        0.319967    0.580641    0.734405     0.006663
NI5021   NI        0.311755    0.619338    0.781520     0.004307
NI5022   NI        0.346353    0.562738    0.770545     0.004307
NI5023   NI        0.353604    0.611530    0.731323     0.004307
NI5024   NI        0.386219    0.576436    0.733155     0.004307
NI5025   NI        0.382039    0.627156    0.787920     0.004307
CU5026   CU        0.418688    0.578260    0.764293     0.006663
NI5027   NI        0.415605    0.623439    0.756391     0.004307
CU5028   CU        0.451092    0.578985    0.734338     0.006663
NI5029   NI        0.453703    0.627354    0.780929     0.004307
NI5030   NI        0.485607    0.579195    0.770267     0.004307
NI5031   NI        0.484667    0.614236    0.738054     0.004307
NI5032   NI        0.518645    0.581178    0.739245     0.004307
NI5033   NI        0.513678    0.613230    0.778196     0.004307
NI5034   NI        0.553370    0.580312    0.771584     0.004307
NI5035   NI        0.551229    0.614449    0.735882     0.004307
NI5036   NI        0.584845    0.584290    0.736681     0.004307
NI5037   NI        0.592493    0.625400    0.785105     0.004307
CU5038   CU        0.627673    0.585669    0.787261     0.006663
NI5039   NI        0.625240    0.621085    0.752997     0.004307
CU5040   CU        0.657020    0.576103    0.738569     0.006663
NI5041   NI        0.661191    0.620839    0.783223     0.004307
NI5042   NI        0.696138    0.587103    0.783330     0.004307
NI5043   NI        0.695641    0.618598    0.749360     0.004307
NI5044   NI        0.729595    0.585414    0.747937     0.004307
NI5045   NI        0.726215    0.619632    0.780652     0.004307
NI5046   NI        0.760389    0.584886    0.782299     0.004307
NI5047   NI        0.762283    0.618773    0.747851     0.004307
NI5048   NI        0.798987    0.584923    0.746642     0.004307
NI5049   NI        0.172018    0.655471    0.744423     0.004307
NI5050   NI        0.209828    0.652063    0.779896     0.004307
CU5051   CU        0.209211    0.688594    0.748548     0.006663
NI5052   NI        0.243834    0.657078    0.747199     0.004307
NI5053   NI        0.245888    0.688657    0.779201     0.004307
CU5054   CU        0.277947    0.656186    0.780894     0.006663
NI5055   NI        0.277301    0.691240    0.748938     0.004307
CU5056   CU        0.310449    0.660433    0.747008     0.006663
NI5057   NI        0.313752    0.690877    0.781186     0.004307
NI5058   NI        0.344320    0.658025    0.786244     0.004307
CU5059   CU        0.346697    0.693249    0.749883     0.006663
NI5060   NI        0.384823    0.645463    0.730340     0.004307
CU5061   CU        0.382586    0.692643    0.783077     0.006663
NI5062   NI        0.417976    0.659359    0.784757     0.004307
NI5063   NI        0.416275    0.696518    0.751744     0.004307
NI5064   NI        0.450674    0.647519    0.737132     0.004307
NI5065   NI        0.452807    0.692433    0.784113     0.004307
NI5066   NI        0.490946    0.657548    0.784542     0.004307
NI5067   NI        0.491641    0.693806    0.752498     0.004307
NI5068   NI        0.526848    0.657860    0.752129     0.004307
NI5069   NI        0.523092    0.689964    0.784294     0.004307
CU5070   CU        0.558138    0.657603    0.785421     0.006663
NI5071   NI        0.555871    0.692530    0.750666     0.004307
NI5072   NI        0.591059    0.657654    0.750508     0.004307
NI5073   NI        0.591876    0.690732    0.784181     0.004307
CU5074   CU        0.625241    0.654187    0.783392     0.006663
CU5075   CU        0.626449    0.680029    0.741065     0.006663
CU5076   CU        0.660395    0.648803    0.742982     0.006663
CU5077   CU        0.658924    0.684136    0.777165     0.006663
CU5078   CU        0.693389    0.652619    0.779861     0.006663
NI5079   NI        0.694067    0.683567    0.745390     0.004307
NI5080   NI        0.729071    0.649423    0.744814     0.004307
NI5081   NI        0.244901    0.722520    0.743882     0.004307
NI5082   NI        0.279032    0.720142    0.781423     0.004307
NI5083   NI        0.278687    0.754480    0.746371     0.004307
CU5084   CU        0.312436    0.723786    0.748904     0.006663
NI5085   NI        0.312965    0.756959    0.778725     0.004307
NI5086   NI        0.347773    0.724131    0.783524     0.004307
CU5087   CU        0.347590    0.758947    0.749111     0.006663
CU5088   CU        0.380552    0.726670    0.752472     0.006663
NI5089   NI        0.381901    0.757915    0.784142     0.004307
NI5090   NI        0.419051    0.723321    0.785672     0.004307
NI5091   NI        0.415681    0.759157    0.749332     0.004307
CU5092   CU        0.450226    0.729335    0.751237     0.006663
NI5093   NI        0.452901    0.757889    0.784958     0.004307
CU5094   CU        0.486465    0.725326    0.785125     0.006663
CU5095   CU        0.487797    0.759984    0.749082     0.006663
CU5096   CU        0.520703    0.726381    0.750905     0.006663
CU5097   CU        0.519423    0.759779    0.783116     0.006663
NI5098   NI        0.552602    0.723697    0.785461     0.004307
NI5099   NI        0.552722    0.760490    0.752189     0.004307
NI5100   NI        0.596932    0.717348    0.741454     0.004307
NI5101   NI        0.589455    0.757888    0.783008     0.004307
NI5102   NI        0.626382    0.720823    0.780560     0.004307
NI5103   NI        0.620804    0.756563    0.749417     0.004307
NI5104   NI        0.658158    0.710084    0.743005     0.004307
NI5105   NI        0.313618    0.787761    0.745505     0.004307
CU5106   CU        0.347608    0.789988    0.780958     0.006663
NI5107   NI        0.381688    0.790571    0.749771     0.004307
NI5108   NI        0.416424    0.790058    0.783925     0.004307
NI5109   NI        0.415608    0.822506    0.749425     0.004307
NI5110   NI        0.451097    0.790794    0.751043     0.004307
NI5111   NI        0.486570    0.791204    0.783082     0.004307
CU5112   CU        0.484246    0.821870    0.749184     0.006663
NI5113   NI        0.520684    0.792034    0.750306     0.004307
CU5114   CU        0.557081    0.793043    0.783177     0.006663
NI5115   NI        0.587721    0.793008    0.750877     0.004307
NI5116   NI        0.346586    0.136978    0.814380     0.004307
NI5117   NI        0.415478    0.136077    0.816462     0.004307
NI5118   NI        0.488389    0.136884    0.817802     0.004307
NI5119   NI        0.559355    0.135552    0.814831     0.004307
NI5120   NI        0.280316    0.203204    0.816969     0.004307
NI5121   NI        0.310939    0.166684    0.814490     0.004307
NI5122   NI        0.312511    0.207191    0.852146     0.004307
NI5123   NI        0.343746    0.200166    0.818856     0.004307
NI5124   NI        0.379538    0.166592    0.817799     0.004307
NI5125   NI        0.381399    0.203602    0.851353     0.004307
NI5126   NI        0.412567    0.167029    0.849653     0.004307
NI5127   NI        0.411355    0.202094    0.818926     0.004307
NI5128   NI        0.452688    0.166529    0.819805     0.004307
NI5129   NI        0.444768    0.199947    0.852839     0.004307
NI5130   NI        0.488485    0.172617    0.849752     0.004307
NI5131   NI        0.455345    0.212159    0.810767     0.004307
NI5132   NI        0.498617    0.205125    0.814315     0.004307
NI5133   NI        0.523497    0.203425    0.850006     0.004307
NI5134   NI        0.560741    0.205228    0.817953     0.004307
NI5135   NI        0.593661    0.167912    0.815692     0.004307
NI5136   NI        0.593157    0.203804    0.849960     0.004307
NI5137   NI        0.624817    0.205034    0.818054     0.004307
NI5138   NI        0.212479    0.272086    0.815277     0.004307
NI5139   NI        0.243531    0.237274    0.816858     0.004307
NI5140   NI        0.244303    0.272026    0.848551     0.004307
NI5141   NI        0.276638    0.236476    0.847127     0.004307
NI5142   NI        0.276526    0.269723    0.815069     0.004307
NI5143   NI        0.312084    0.235461    0.818862     0.004307
CU5144   CU        0.309720    0.272367    0.848887     0.006663
NI5145   NI        0.346525    0.235913    0.849770     0.004307
NI5146   NI        0.343244    0.269308    0.817748     0.004307
NI5147   NI        0.380019    0.233301    0.818323     0.004307
NI5148   NI        0.381040    0.272950    0.850322     0.004307
NI5149   NI        0.412161    0.235107    0.850687     0.004307
CU5150   CU        0.418814    0.292627    0.804365     0.006663
NI5151   NI        0.452816    0.256315    0.807221     0.004307
CU5152   CU        0.447156    0.271419    0.851083     0.006663
CU5153   CU        0.487315    0.258377    0.835899     0.006663
CU5154   CU        0.483825    0.287788    0.802765     0.006663
CU5155   CU        0.526390    0.238423    0.818989     0.006663
NI5156   NI        0.525578    0.271527    0.851553     0.004307
NI5157   NI        0.557553    0.237966    0.850077     0.004307
NI5158   NI        0.558577    0.270877    0.816984     0.004307
NI5159   NI        0.592813    0.237464    0.818045     0.004307
CU5160   CU        0.589219    0.271892    0.851092     0.006663
NI5161   NI        0.628071    0.240064    0.846941     0.004307
CU5162   CU        0.627944    0.271886    0.815901     0.006663
NI5163   NI        0.660650    0.235965    0.815174     0.004307
CU5164   CU        0.662404    0.272483    0.846861     0.006663
NI5165   NI        0.693351    0.272298    0.815896     0.004307
NI5166   NI        0.132874    0.341068    0.798209     0.004307
NI5167   NI        0.180228    0.304856    0.817532     0.004307
NI5168   NI        0.210006    0.306137    0.849249     0.004307
NI5169   NI        0.209518    0.340898    0.819471     0.004307
CU5170   CU        0.242121    0.307158    0.817951     0.006663
CU5171   CU        0.241606    0.339790    0.847732     0.006663
NI5172   NI        0.277576    0.305497    0.849303     0.004307
NI5173   NI        0.275891    0.340801    0.817460     0.004307
NI5174   NI        0.309681    0.305438    0.818317     0.004307
CU5175   CU        0.311527    0.339778    0.850871     0.006663
CU5176   CU        0.347140    0.303511    0.850536     0.006663
NI5177   NI        0.346212    0.339950    0.819245     0.004307
CU5178   CU        0.379659    0.306092    0.818912     0.006663
CU5179   CU        0.377860    0.341937    0.851239     0.006663
NI5180   NI        0.413883    0.304579    0.849657     0.004307
NI5181   NI        0.413358    0.340660    0.824568     0.004307
NI5182   NI        0.451927    0.320232    0.804014     0.004307
NI5183   NI        0.452546    0.340220    0.849281     0.004307
NI5184   NI        0.485392    0.305521    0.848001     0.004307
NI5185   NI        0.486383    0.349028    0.811467     0.004307
NI5186   NI        0.517112    0.317733    0.814535     0.004307
NI5187   NI        0.523805    0.343169    0.849459     0.004307
CU5188   CU        0.554881    0.306958    0.849275     0.006663
NI5189   NI        0.557112    0.344951    0.816388     0.004307
NI5190   NI        0.593995    0.304178    0.816567     0.004307
NI5191   NI        0.590154    0.340233    0.849129     0.004307
NI5192   NI        0.627088    0.305572    0.849333     0.004307
NI5193   NI        0.630707    0.341415    0.817437     0.004307
NI5194   NI        0.661010    0.308238    0.817389     0.004307
NI5195   NI        0.663748    0.341599    0.850366     0.004307
NI5196   NI        0.696377    0.305416    0.850878     0.004307
NI5197   NI        0.694744    0.340021    0.819771     0.004307
CU5198   CU        0.728416    0.306346    0.817374     0.006663
NI5199   NI        0.761679    0.338616    0.812340     0.004307
CU5200   CU        0.142508    0.415310    0.818020     0.006663
NI5201   NI        0.175147    0.380061    0.817718     0.004307
NI5202   NI        0.175852    0.413720    0.847588     0.004307
CU5203   CU        0.212137    0.378753    0.849464     0.006663
NI5204   NI        0.208329    0.412493    0.817261     0.004307
CU5205   CU        0.240374    0.374947    0.817195     0.006663
NI5206   NI        0.242473    0.411879    0.851960     0.004307
CU5207   CU        0.276020    0.374595    0.850329     0.006663
NI5208   NI        0.273276    0.406717    0.818477     0.004307
NI5209   NI        0.311136    0.372946    0.821768     0.004307
NI5210   NI        0.309912    0.409088    0.850898     0.004307
CU5211   CU        0.346479    0.376337    0.849885     0.006663
NI5212   NI        0.346222    0.408610    0.817785     0.004307
NI5213   NI        0.380185    0.376411    0.822174     0.004307
CU5214   CU        0.380465    0.410895    0.852811     0.006663
CU5215   CU        0.415509    0.378154    0.851663     0.006663
NI5216   NI        0.417855    0.408626    0.820214     0.004307
NI5217   NI        0.456934    0.382110    0.807474     0.004307
CU5218   CU        0.448640    0.410592    0.854966     0.006663
NI5219   NI        0.486111    0.375388    0.850821     0.004307
NI5220   NI        0.488015    0.412175    0.802573     0.004307
NI5221   NI        0.521643    0.378835    0.823061     0.004307
CU5222   CU        0.521871    0.412133    0.854480     0.006663
NI5223   NI        0.558109    0.374924    0.850006     0.004307
NI5224   NI        0.553984    0.415308    0.807040     0.004307
NI5225   NI        0.595237    0.372146    0.819430     0.004307
NI5226   NI        0.596730    0.405302    0.851824     0.004307
NI5227   NI        0.629426    0.372722    0.849948     0.004307
NI5228   NI        0.629407    0.407316    0.819117     0.004307
CU5229   CU        0.661288    0.373398    0.818550     0.006663
NI5230   NI        0.663376    0.410064    0.850088     0.004307
CU5231   CU        0.694596    0.375408    0.850489     0.006663
CU5232   CU        0.695411    0.407926    0.815602     0.006663
NI5233   NI        0.730099    0.377488    0.816624     0.004307
NI5234   NI        0.729612    0.407374    0.848479     0.004307
NI5235   NI        0.764558    0.410203    0.816647     0.004307
NI5236   NI        0.143135    0.483518    0.814293     0.004307
NI5237   NI        0.173895    0.448135    0.815642     0.004307
NI5238   NI        0.176275    0.481449    0.846383     0.004307
NI5239   NI        0.209871    0.446908    0.849445     0.004307
NI5240   NI        0.208088    0.482843    0.815660     0.004307
CU5241   CU        0.241327    0.444765    0.815930     0.006663
CU5242   CU        0.241121    0.481122    0.850865     0.006663
NI5243   NI        0.275672    0.443386    0.849539     0.004307
NI5244   NI        0.275881    0.484123    0.818606     0.004307
NI5245   NI        0.309713    0.446602    0.822244     0.004307
NI5246   NI        0.311113    0.482164    0.850023     0.004307
NI5247   NI        0.345500    0.445906    0.851630     0.004307
NI5248   NI        0.345150    0.482557    0.820023     0.004307
CU5249   CU        0.383346    0.448273    0.802563     0.006663
NI5250   NI        0.378057    0.482461    0.853517     0.004307
NI5251   NI        0.414362    0.440907    0.853841     0.004307
NI5252   NI        0.419562    0.480211    0.803783     0.004307
NI5253   NI        0.453368    0.445462    0.801889     0.004307
CU5254   CU        0.449016    0.467837    0.840614     0.006663
NI5255   NI        0.486907    0.444745    0.856504     0.004307
NI5256   NI        0.487304    0.480499    0.803871     0.004307
NI5257   NI        0.520454    0.447380    0.806018     0.004307
NI5258   NI        0.520525    0.480567    0.860698     0.004307
NI5259   NI        0.552433    0.447053    0.859529     0.004307
NI5260   NI        0.553299    0.483625    0.808513     0.004307
NI5261   NI        0.586659    0.448363    0.803550     0.004307
CU5262   CU        0.597952    0.486561    0.849521     0.006663
NI5263   NI        0.627566    0.448320    0.849502     0.004307
NI5264   NI        0.629639    0.483181    0.818064     0.004307
NI5265   NI        0.660987    0.443053    0.819589     0.004307
NI5266   NI        0.661778    0.481186    0.848107     0.004307
CU5267   CU        0.693504    0.445973    0.849137     0.006663
NI5268   NI        0.697031    0.483423    0.816679     0.004307
NI5269   NI        0.705860    0.448495    0.785096     0.004307
NI5270   NI        0.731187    0.487463    0.850956     0.004307
CU5271   CU        0.764127    0.484282    0.816066     0.006663
NI5272   NI        0.146048    0.551752    0.818080     0.004307
NI5273   NI        0.175051    0.517130    0.816218     0.004307
NI5274   NI        0.209498    0.517327    0.847942     0.004307
NI5275   NI        0.209509    0.553213    0.815930     0.004307
CU5276   CU        0.241182    0.517943    0.819111     0.006663
CU5277   CU        0.242071    0.554301    0.846587     0.006663
NI5278   NI        0.275315    0.517483    0.849476     0.004307
NI5279   NI        0.274876    0.552643    0.816510     0.004307
NI5280   NI        0.307844    0.518074    0.818128     0.004307
CU5281   CU        0.310945    0.552645    0.850955     0.006663
NI5282   NI        0.344637    0.513154    0.850135     0.004307
NI5283   NI        0.378272    0.555181    0.806536     0.004307
CU5284   CU        0.386604    0.511459    0.803290     0.006663
NI5285   NI        0.381645    0.550388    0.850958     0.004307
NI5286   NI        0.416165    0.517378    0.858723     0.004307
NI5287   NI        0.421608    0.548372    0.824299     0.004307
NI5288   NI        0.449799    0.515547    0.806227     0.004307
CU5289   CU        0.451893    0.547832    0.859432     0.006663
NI5290   NI        0.486828    0.513908    0.862062     0.004307
NI5291   NI        0.479760    0.548411    0.802821     0.004307
NI5292   NI        0.517262    0.513748    0.806501     0.004307
NI5293   NI        0.526414    0.556979    0.850270     0.004307
NI5294   NI        0.561232    0.519004    0.849217     0.004307
NI5295   NI        0.558705    0.559476    0.818631     0.004307
NI5296   NI        0.590428    0.518713    0.814526     0.004307
NI5297   NI        0.593332    0.553111    0.848387     0.004307
NI5298   NI        0.628936    0.518086    0.851136     0.004307
NI5299   NI        0.628540    0.551132    0.815637     0.004307
NI5300   NI        0.660378    0.517321    0.818968     0.004307
CU5301   CU        0.660545    0.551547    0.848029     0.006663
CU5302   CU        0.696859    0.516698    0.850074     0.006663
CU5303   CU        0.697532    0.550899    0.813991     0.006663
NI5304   NI        0.733216    0.518923    0.816836     0.004307
NI5305   NI        0.761528    0.552649    0.814031     0.004307
CU5306   CU        0.177602    0.588316    0.813327     0.006663
NI5307   NI        0.210116    0.588845    0.845042     0.004307
NI5308   NI        0.209817    0.620621    0.814990     0.004307
NI5309   NI        0.243584    0.587480    0.815822     0.004307
NI5310   NI        0.244543    0.619601    0.845399     0.004307
NI5311   NI        0.277599    0.586079    0.848019     0.004307
NI5312   NI        0.275894    0.622256    0.814190     0.004307
CU5313   CU        0.309583    0.588518    0.815506     0.006663
CU5314   CU        0.311763    0.621395    0.850522     0.006663
NI5315   NI        0.344384    0.589346    0.851893     0.004307
NI5316   NI        0.343553    0.621891    0.816942     0.004307
CU5317   CU        0.408928    0.587488    0.808075     0.006663
NI5318   NI        0.380057    0.626179    0.849785     0.004307
NI5319   NI        0.416636    0.590673    0.851603     0.004307
NI5320   NI        0.417110    0.628464    0.819325     0.004307
NI5321   NI        0.452068    0.585204    0.822826     0.004307
NI5322   NI        0.452920    0.623182    0.848509     0.004307
CU5323   CU        0.486514    0.591075    0.849258     0.006663
NI5324   NI        0.485550    0.625042    0.817012     0.004307
NI5325   NI        0.521877    0.588537    0.820056     0.004307
CU5326   CU        0.522560    0.621871    0.851880     0.006663
CU5327   CU        0.560785    0.586694    0.852937     0.006663
NI5328   NI        0.558883    0.622197    0.819469     0.004307
NI5329   NI        0.593243    0.589649    0.817829     0.004307
NI5330   NI        0.592219    0.622629    0.849518     0.004307
NI5331   NI        0.627965    0.585651    0.848484     0.004307
NI5332   NI        0.627367    0.621190    0.818126     0.004307
NI5333   NI        0.662393    0.586497    0.817880     0.004307
NI5334   NI        0.661439    0.620669    0.847481     0.004307
CU5335   CU        0.696382    0.585104    0.846110     0.006663
NI5336   NI        0.693776    0.618727    0.815534     0.004307
NI5337   NI        0.727908    0.583307    0.814859     0.004307
NI5338   NI        0.244898    0.655787    0.812314     0.004307
NI5339   NI        0.278502    0.654903    0.848447     0.004307
CU5340   CU        0.278259    0.688979    0.813699     0.006663
NI5341   NI        0.311478    0.655269    0.813731     0.004307
NI5342   NI        0.309561    0.686414    0.846037     0.004307
NI5343   NI        0.345479    0.655902    0.847852     0.004307
NI5344   NI        0.347992    0.690628    0.817394     0.004307
NI5345   NI        0.382255    0.660114    0.818163     0.004307
NI5346   NI        0.380473    0.690126    0.850673     0.004307
NI5347   NI        0.414822    0.658481    0.851291     0.004307
CU5348   CU        0.417179    0.688889    0.816032     0.006663
NI5349   NI        0.451966    0.658088    0.815941     0.004307
NI5350   NI        0.452102    0.689614    0.848671     0.004307
NI5351   NI        0.486093    0.656037    0.851083     0.004307
NI5352   NI        0.487703    0.689400    0.816988     0.004307
CU5353   CU        0.524178    0.655859    0.817626     0.006663
NI5354   NI        0.521925    0.687756    0.850500     0.004307
NI5355   NI        0.557643    0.655531    0.848014     0.004307
NI5356   NI        0.557266    0.691008    0.817526     0.004307
NI5357   NI        0.591937    0.657209    0.817778     0.004307
NI5358   NI        0.595176    0.691672    0.850277     0.004307
NI5359   NI        0.627430    0.655727    0.848895     0.004307
CU5360   CU        0.624006    0.688014    0.813949     0.006663
NI5361   NI        0.658788    0.655763    0.817544     0.004307
NI5362   NI        0.314014    0.722312    0.814555     0.004307
NI5363   NI        0.347249    0.755220    0.814581     0.004307
NI5364   NI        0.381624    0.724127    0.816449     0.004307
NI5365   NI        0.417782    0.721420    0.848241     0.004307
NI5366   NI        0.414761    0.757379    0.815248     0.004307
NI5367   NI        0.451755    0.722137    0.817202     0.004307
NI5368   NI        0.487649    0.719411    0.848345     0.004307
CU5369   CU        0.486176    0.755366    0.818643     0.006663
NI5370   NI        0.522360    0.724385    0.818649     0.004307
NI5371   NI        0.558334    0.757800    0.814653     0.004307
CU5372   CU        0.587555    0.723698    0.814592     0.006663
NI5373   NI        0.344709    0.269977    0.880082     0.004307
NI5374   NI        0.380194    0.240652    0.879575     0.004307
NI5375   NI        0.417413    0.272133    0.881337     0.004307
NI5376   NI        0.445844    0.237522    0.881580     0.004307
CU5377   CU        0.482813    0.273521    0.880897     0.006663
NI5378   NI        0.522390    0.239141    0.881775     0.004307
NI5379   NI        0.556097    0.272082    0.881813     0.004307
NI5380   NI        0.277270    0.340017    0.881310     0.004307
NI5381   NI        0.314115    0.306177    0.880545     0.004307
NI5382   NI        0.346017    0.338969    0.882072     0.004307
NI5383   NI        0.380444    0.306523    0.880911     0.004307
NI5384   NI        0.380821    0.343243    0.912432     0.004307
CU5385   CU        0.415935    0.306986    0.912410     0.006663
CU5386   CU        0.418879    0.341457    0.880012     0.006663
CU5387   CU        0.451102    0.307355    0.881038     0.006663
NI5388   NI        0.454423    0.340857    0.913382     0.004307
NI5389   NI        0.486549    0.308314    0.911448     0.004307
CU5390   CU        0.486896    0.339926    0.880178     0.006663
NI5391   NI        0.521700    0.307971    0.880873     0.004307
NI5392   NI        0.521241    0.342040    0.912529     0.004307
NI5393   NI        0.557258    0.341576    0.880464     0.004307
NI5394   NI        0.593981    0.307064    0.880309     0.004307
CU5395   CU        0.626304    0.341711    0.879399     0.006663
NI5396   NI        0.244434    0.375545    0.882203     0.004307
NI5397   NI        0.277302    0.410298    0.881534     0.004307
CU5398   CU        0.312006    0.372411    0.881120     0.006663
NI5399   NI        0.311709    0.408833    0.911001     0.004307
NI5400   NI        0.347765    0.375670    0.913420     0.004307
NI5401   NI        0.347415    0.410581    0.882892     0.004307
NI5402   NI        0.381468    0.376546    0.882010     0.004307
NI5403   NI        0.380113    0.409307    0.914204     0.004307
NI5404   NI        0.416533    0.372890    0.912057     0.004307
NI5405   NI        0.413187    0.408046    0.884067     0.004307
NI5406   NI        0.451414    0.374523    0.881764     0.004307
CU5407   CU        0.448935    0.408432    0.914310     0.006663
CU5408   CU        0.485988    0.374346    0.913182     0.006663
CU5409   CU        0.485940    0.409201    0.883336     0.006663
CU5410   CU        0.521993    0.374366    0.880718     0.006663
NI5411   NI        0.521314    0.404151    0.912579     0.004307
NI5412   NI        0.558099    0.372856    0.912987     0.004307
CU5413   CU        0.555423    0.409645    0.884351     0.006663
NI5414   NI        0.591334    0.373335    0.881983     0.004307
NI5415   NI        0.593607    0.406467    0.912993     0.004307
NI5416   NI        0.627402    0.411731    0.881564     0.004307
NI5417   NI        0.661571    0.375172    0.881597     0.004307
CU5418   CU        0.244459    0.445929    0.881774     0.006663
NI5419   NI        0.277135    0.481103    0.880635     0.004307
NI5420   NI        0.310179    0.448241    0.880384     0.004307
NI5421   NI        0.310451    0.479306    0.913944     0.004307
CU5422   CU        0.345837    0.445601    0.913618     0.006663
NI5423   NI        0.343234    0.482351    0.884201     0.004307
CU5424   CU        0.379113    0.446477    0.883396     0.006663
CU5425   CU        0.379148    0.481798    0.912918     0.006663
NI5426   NI        0.415657    0.443337    0.912896     0.004307
CU5427   CU        0.416335    0.477643    0.881869     0.006663
NI5428   NI        0.450312    0.444696    0.883611     0.004307
NI5429   NI        0.447725    0.476215    0.916289     0.004307
CU5430   CU        0.482062    0.441975    0.914688     0.006663
NI5431   NI        0.484561    0.478423    0.888678     0.004307
CU5432   CU        0.520056    0.443701    0.888423     0.006663
NI5433   NI        0.525048    0.486891    0.907826     0.004307
NI5434   NI        0.559981    0.452564    0.910060     0.004307
NI5435   NI        0.559306    0.487475    0.880169     0.004307
NI5436   NI        0.595291    0.449803    0.880053     0.004307
NI5437   NI        0.591993    0.484959    0.911635     0.004307
NI5438   NI        0.628552    0.481525    0.882060     0.004307
NI5439   NI        0.661451    0.446487    0.881404     0.004307
NI5440   NI        0.241303    0.514055    0.881910     0.004307
NI5441   NI        0.276553    0.550606    0.879989     0.004307
NI5442   NI        0.311342    0.515238    0.880588     0.004307
NI5443   NI        0.345639    0.518016    0.912583     0.004307
NI5444   NI        0.346088    0.551885    0.880832     0.004307
NI5445   NI        0.377611    0.516052    0.880896     0.004307
NI5446   NI        0.379853    0.550020    0.912607     0.004307
NI5447   NI        0.410943    0.518485    0.911935     0.004307
NI5448   NI        0.415945    0.555652    0.883076     0.004307
NI5449   NI        0.449073    0.512518    0.889018     0.004307
NI5450   NI        0.456072    0.555464    0.909909     0.004307
NI5451   NI        0.491110    0.519876    0.908239     0.004307
NI5452   NI        0.491302    0.556491    0.879290     0.004307
NI5453   NI        0.526987    0.521712    0.880257     0.004307
NI5454   NI        0.520799    0.551682    0.914949     0.004307
CU5455   CU        0.561023    0.520167    0.914028     0.006663
NI5456   NI        0.559904    0.551358    0.881489     0.004307
CU5457   CU        0.593803    0.519634    0.880787     0.006663
NI5458   NI        0.628630    0.553114    0.879791     0.004307
NI5459   NI        0.624912    0.515836    0.915520     0.004307
NI5460   NI        0.309550    0.585307    0.881475     0.004307
NI5461   NI        0.343598    0.622580    0.880863     0.004307
CU5462   CU        0.380428    0.588703    0.883176     0.006663
NI5463   NI        0.413283    0.588133    0.912984     0.004307
NI5464   NI        0.416715    0.623537    0.880314     0.004307
NI5465   NI        0.449946    0.589965    0.881768     0.004307
NI5466   NI        0.489614    0.587771    0.911333     0.004307
NI5467   NI        0.485641    0.622447    0.879462     0.004307
CU5468   CU        0.525145    0.588785    0.882237     0.006663
CU5469   CU        0.556591    0.622970    0.880545     0.006663
NI5470   NI        0.595340    0.590494    0.880191     0.004307
NI5471   NI        0.381022    0.655192    0.881993     0.004307
NI5472   NI        0.450974    0.654924    0.879379     0.004307
CU5473   CU        0.523799    0.654852    0.882445     0.006663
