data_00001
_audit_creation_method   'DISCUS'

_data_chemical_name_common 'Au.cell: Pearson 85'

_cell_length_a             61.1835
_cell_length_b             57.1046
_cell_length_c             57.1046
_cell_angle_alpha     90.0000
_cell_angle_beta      90.0000
_cell_angle_gamma     90.0000

_symmetry_space_group_name_H-M   'P1              '

loop_
_atom_site_label
_atom_site_symbol
_atom_site_fract_x
_atom_site_fract_y
_atom_site_fract_z
_atom_site_u_iso_or_equiv
PT1   PT        0.370190    0.250403    0.041443     0.004505
AU2   AU        0.435002    0.251605    0.040184     0.007504
AU3   AU        0.504076    0.250636    0.035621     0.007504
AU4   AU        0.305276    0.321709    0.044699     0.007504
PT5   PT        0.339535    0.285900    0.039584     0.004505
AU6   AU        0.369460    0.321960    0.036910     0.007504
PT7   PT        0.402655    0.286941    0.037200     0.004505
PT8   PT        0.438518    0.323866    0.038761     0.004505
PT9   PT        0.470284    0.286763    0.037170     0.004505
AU10   AU        0.499727    0.322185    0.039441     0.007504
PT11   PT        0.533812    0.290079    0.041603     0.004505
AU12   AU        0.568338    0.325945    0.041596     0.007504
PT13   PT        0.272755    0.357043    0.037530     0.004505
AU14   AU        0.305165    0.390135    0.039377     0.007504
PT15   PT        0.337816    0.358013    0.040075     0.004505
AU16   AU        0.371053    0.392440    0.038865     0.007504
AU17   AU        0.403838    0.354957    0.038809     0.007504
AU18   AU        0.403179    0.393010    0.004912     0.007504
AU19   AU        0.438181    0.358901    0.001775     0.007504
AU20   AU        0.434771    0.392741    0.039099     0.007504
PT21   PT        0.468217    0.358805    0.040978     0.004505
AU22   AU        0.473404    0.393959    0.002069     0.007504
AU23   AU        0.502664    0.394231    0.038815     0.007504
PT24   PT        0.536487    0.359949    0.036731     0.004505
PT25   PT        0.570974    0.394436    0.040692     0.004505
PT26   PT        0.603512    0.360978    0.037813     0.004505
AU27   AU        0.271801    0.426059    0.036985     0.007504
PT28   PT        0.307178    0.461782    0.037592     0.004505
PT29   PT        0.340657    0.427968    0.041741     0.004505
AU30   AU        0.371916    0.427621    0.003322     0.007504
AU31   AU        0.369264    0.466712    0.039255     0.007504
AU32   AU        0.402057    0.430297    0.040430     0.007504
PT33   PT        0.401737    0.465035    0.001574     0.004505
PT34   PT        0.434205    0.429237    0.003155     0.004505
AU35   AU        0.438239    0.464859    0.039921     0.007504
AU36   AU        0.467950    0.428311    0.037455     0.007504
PT37   PT        0.469405    0.460878    0.000714     0.004505
AU38   AU        0.504184    0.430036    0.003453     0.007504
PT39   PT        0.501442    0.461866    0.041028     0.004505
AU40   AU        0.535849    0.426647    0.040980     0.007504
AU41   AU        0.565704    0.462707    0.040186     0.007504
PT42   PT        0.602627    0.429516    0.039284     0.004505
PT43   PT        0.241338    0.536154    0.035768     0.004505
AU44   AU        0.302823    0.537245    0.040207     0.007504
AU45   AU        0.337549    0.502142    0.039482     0.007504
AU46   AU        0.370690    0.537217    0.039175     0.007504
PT47   PT        0.403393    0.498874    0.037445     0.004505
AU48   AU        0.437080    0.496903    0.004008     0.007504
AU49   AU        0.435832    0.534496    0.040486     0.007504
AU50   AU        0.469664    0.498249    0.042128     0.007504
PT51   PT        0.499857    0.531782    0.036937     0.004505
AU52   AU        0.533808    0.497893    0.037492     0.007504
PT53   PT        0.565583    0.534308    0.037857     0.004505
AU54   AU        0.599409    0.498970    0.035406     0.007504
AU55   AU        0.338015    0.571423    0.039768     0.007504
AU56   AU        0.371240    0.609883    0.039297     0.007504
PT57   PT        0.404995    0.576283    0.040734     0.004505
AU58   AU        0.438970    0.610200    0.039788     0.007504
PT59   PT        0.468577    0.569986    0.037942     0.004505
PT60   PT        0.502183    0.604965    0.041326     0.004505
AU61   AU        0.534792    0.571369    0.034844     0.007504
AU62   AU        0.304996    0.183546    0.108261     0.007504
AU63   AU        0.370769    0.183925    0.108389     0.007504
AU64   AU        0.404301    0.142209    0.109414     0.007504
AU65   AU        0.402483    0.182748    0.070422     0.007504
AU66   AU        0.436060    0.179135    0.109460     0.007504
AU67   AU        0.467257    0.143232    0.109143     0.007504
AU68   AU        0.437670    0.145584    0.073500     0.007504
PT69   PT        0.533003    0.145634    0.109792     0.004505
AU70   AU        0.567821    0.182507    0.112820     0.007504
AU71   AU        0.238340    0.253283    0.107363     0.007504
PT72   PT        0.271967    0.218399    0.111578     0.004505
AU73   AU        0.269942    0.247811    0.074203     0.007504
PT74   PT        0.304413    0.249749    0.108682     0.004505
PT75   PT        0.340370    0.218010    0.113240     0.004505
AU76   AU        0.337782    0.250317    0.075288     0.007504
PT77   PT        0.339282    0.182134    0.075529     0.004505
AU78   AU        0.372131    0.253081    0.114849     0.007504
AU79   AU        0.404334    0.217922    0.110940     0.007504
PT80   PT        0.403718    0.251320    0.074035     0.004505
PT81   PT        0.435764    0.217123    0.071115     0.004505
PT82   PT        0.439242    0.252242    0.109739     0.004505
PT83   PT        0.469554    0.215216    0.107995     0.004505
PT84   PT        0.470692    0.251908    0.073270     0.004505
PT85   PT        0.504742    0.219917    0.074674     0.004505
AU86   AU        0.504834    0.254177    0.109967     0.007504
PT87   PT        0.538182    0.217654    0.108924     0.004505
AU88   AU        0.543792    0.218180    0.045084     0.007504
PT89   PT        0.569223    0.255022    0.112826     0.004505
AU90   AU        0.601366    0.219139    0.111535     0.007504
PT91   PT        0.573254    0.142737    0.005225     0.004505
AU92   AU        0.635583    0.252598    0.110994     0.007504
AU93   AU        0.171434    0.257235    0.105628     0.007504
AU94   AU        0.234203    0.324122    0.112637     0.007504
PT95   PT        0.269832    0.287694    0.111657     0.004505
PT96   PT        0.268028    0.325691    0.075751     0.004505
AU97   AU        0.304995    0.284891    0.073367     0.007504
PT98   PT        0.305904    0.320577    0.109312     0.004505
AU99   AU        0.338826    0.287083    0.111399     0.007504
AU100   AU        0.339385    0.321189    0.076950     0.007504
AU101   AU        0.371447    0.285771    0.073598     0.007504
AU102   AU        0.371602    0.323903    0.114136     0.007504
AU103   AU        0.405334    0.287235    0.111632     0.007504
AU104   AU        0.406526    0.318775    0.074748     0.007504
AU105   AU        0.438868    0.289165    0.075803     0.007504
AU106   AU        0.436075    0.324818    0.113145     0.007504
PT107   PT        0.469386    0.288922    0.112782     0.004505
AU108   AU        0.468802    0.324732    0.076089     0.007504
AU109   AU        0.500780    0.288679    0.075335     0.007504
PT110   PT        0.499206    0.325210    0.113053     0.004505
AU111   AU        0.533893    0.292167    0.112567     0.007504
PT112   PT        0.533811    0.322538    0.074373     0.004505
AU113   AU        0.564466    0.286889    0.075983     0.007504
AU114   AU        0.568831    0.323970    0.112710     0.007504
AU115   AU        0.603124    0.290347    0.112190     0.007504
AU116   AU        0.634949    0.323025    0.041131     0.007504
AU117   AU        0.637515    0.323655    0.110948     0.007504
PT118   PT        0.669976    0.287074    0.108776     0.004505
AU119   AU        0.170525    0.394641    0.111575     0.007504
PT120   PT        0.204174    0.360308    0.112238     0.004505
AU121   AU        0.205222    0.394035    0.074228     0.007504
AU122   AU        0.237475    0.359281    0.074651     0.007504
PT123   PT        0.237957    0.396918    0.113307     0.004505
AU124   AU        0.269680    0.362655    0.112530     0.007504
AU125   AU        0.271035    0.393005    0.073314     0.007504
AU126   AU        0.304286    0.359394    0.077055     0.007504
PT127   PT        0.305302    0.394352    0.112035     0.004505
AU128   AU        0.334865    0.359808    0.112219     0.007504
AU129   AU        0.340216    0.393945    0.077133     0.007504
AU130   AU        0.372693    0.354978    0.075677     0.007504
PT131   PT        0.367854    0.393646    0.114202     0.004505
AU132   AU        0.401927    0.362021    0.114728     0.007504
AU133   AU        0.401558    0.395323    0.076511     0.007504
PT134   PT        0.432486    0.362517    0.076753     0.004505
PT135   PT        0.435519    0.396392    0.114154     0.004505
PT136   PT        0.466940    0.358697    0.115995     0.004505
PT137   PT        0.469944    0.390734    0.078103     0.004505
PT138   PT        0.501968    0.357826    0.074934     0.004505
AU139   AU        0.501743    0.393733    0.112299     0.007504
PT140   PT        0.533483    0.356503    0.111632     0.004505
AU141   AU        0.536660    0.393980    0.073697     0.007504
PT142   PT        0.568383    0.358685    0.077560     0.004505
AU143   AU        0.565456    0.393039    0.112879     0.007504
AU144   AU        0.602532    0.358188    0.114329     0.007504
AU145   AU        0.602598    0.394908    0.075082     0.007504
PT146   PT        0.632722    0.357674    0.076542     0.004505
AU147   AU        0.632878    0.393584    0.111285     0.007504
AU148   AU        0.666430    0.362367    0.110219     0.007504
AU149   AU        0.666237    0.394731    0.072294     0.007504
AU150   AU        0.699865    0.396991    0.108343     0.007504
AU151   AU        0.171080    0.463561    0.110030     0.007504
AU152   AU        0.204221    0.427696    0.110061     0.007504
AU153   AU        0.203277    0.462698    0.076112     0.007504
AU154   AU        0.237457    0.427284    0.073398     0.007504
AU155   AU        0.237847    0.464633    0.110685     0.007504
AU156   AU        0.270284    0.428539    0.106426     0.007504
PT157   PT        0.271376    0.462186    0.073453     0.004505
AU158   AU        0.303763    0.427788    0.073357     0.007504
AU159   AU        0.303813    0.467019    0.110293     0.007504
AU160   AU        0.336692    0.431344    0.109649     0.007504
PT161   PT        0.337558    0.466613    0.076758     0.004505
PT162   PT        0.369925    0.431762    0.077294     0.004505
PT163   PT        0.371490    0.468076    0.113035     0.004505
AU164   AU        0.400715    0.427619    0.115282     0.007504
AU165   AU        0.401886    0.466534    0.076823     0.007504
AU166   AU        0.436587    0.427235    0.076166     0.007504
AU167   AU        0.434081    0.463421    0.115758     0.007504
PT168   PT        0.470114    0.430090    0.116304     0.004505
AU169   AU        0.467809    0.462146    0.078338     0.007504
AU170   AU        0.505274    0.429063    0.077682     0.007504
PT171   PT        0.501689    0.464970    0.115618     0.004505
AU172   AU        0.537386    0.429931    0.113017     0.007504
AU173   AU        0.535586    0.465201    0.078368     0.007504
AU174   AU        0.567741    0.430134    0.076422     0.007504
PT175   PT        0.570394    0.466338    0.114014     0.004505
AU176   AU        0.600093    0.430695    0.111359     0.007504
AU177   AU        0.600498    0.465088    0.072852     0.007504
AU178   AU        0.632329    0.428688    0.073488     0.007504
PT179   PT        0.635393    0.465286    0.109191     0.004505
AU180   AU        0.666571    0.429685    0.110347     0.007504
PT181   PT        0.664794    0.462531    0.069325     0.004505
AU182   AU        0.701044    0.463749    0.108484     0.007504
PT183   PT        0.205091    0.500153    0.110572     0.004505
AU184   AU        0.238334    0.500072    0.076233     0.007504
AU185   AU        0.238249    0.533027    0.114129     0.007504
PT186   PT        0.271607    0.500387    0.115708     0.004505
AU187   AU        0.269033    0.535205    0.076999     0.007504
AU188   AU        0.301688    0.500239    0.076424     0.007504
PT189   PT        0.302369    0.534930    0.112412     0.004505
PT190   PT        0.337159    0.501504    0.114752     0.004505
PT191   PT        0.335301    0.535053    0.078141     0.004505
AU192   AU        0.367910    0.502791    0.077445     0.007504
AU193   AU        0.370522    0.538050    0.112760     0.007504
AU194   AU        0.403626    0.501272    0.111272     0.007504
PT195   PT        0.402905    0.537115    0.073912     0.004505
AU196   AU        0.434789    0.499518    0.074242     0.007504
PT197   PT        0.434366    0.535935    0.111331     0.004505
AU198   AU        0.467150    0.499696    0.113778     0.007504
PT199   PT        0.468087    0.535191    0.076625     0.004505
AU200   AU        0.501525    0.496251    0.075979     0.007504
AU201   AU        0.500201    0.533219    0.110596     0.007504
AU202   AU        0.534711    0.499570    0.115839     0.007504
PT203   PT        0.533626    0.532665    0.075673     0.004505
AU204   AU        0.566253    0.498528    0.074121     0.007504
PT205   PT        0.566033    0.533220    0.112883     0.004505
AU206   AU        0.602785    0.500095    0.113232     0.007504
PT207   PT        0.596990    0.534733    0.076545     0.004505
AU208   AU        0.632242    0.502165    0.072004     0.007504
PT209   PT        0.634717    0.535840    0.114300     0.004505
AU210   AU        0.667425    0.499097    0.108020     0.007504
AU211   AU        0.170734    0.611774    0.111137     0.007504
PT212   PT        0.232274    0.605643    0.108899     0.004505
PT213   PT        0.267656    0.572345    0.110448     0.004505
PT214   PT        0.288191    0.619980    0.065631     0.004505
AU215   AU        0.302921    0.571559    0.077437     0.007504
AU216   AU        0.306085    0.608092    0.111242     0.007504
PT217   PT        0.338606    0.573883    0.111967     0.004505
AU218   AU        0.339156    0.605368    0.074495     0.007504
AU219   AU        0.371287    0.570563    0.074855     0.007504
AU220   AU        0.370367    0.607554    0.112742     0.007504
AU221   AU        0.402101    0.572248    0.112640     0.007504
AU222   AU        0.402602    0.608001    0.076171     0.007504
AU223   AU        0.436955    0.571203    0.075612     0.007504
PT224   PT        0.434414    0.607915    0.114158     0.004505
PT225   PT        0.466819    0.571560    0.112899     0.004505
AU226   AU        0.469283    0.608158    0.076288     0.007504
AU227   AU        0.502584    0.569167    0.074175     0.007504
PT228   PT        0.500672    0.607059    0.110459     0.004505
AU229   AU        0.532862    0.571427    0.112724     0.007504
AU230   AU        0.536341    0.607771    0.076583     0.007504
PT231   PT        0.565908    0.568345    0.074807     0.004505
PT232   PT        0.568429    0.604255    0.109540     0.004505
AU233   AU        0.600264    0.570941    0.111013     0.007504
AU234   AU        0.597651    0.606566    0.071559     0.007504
AU235   AU        0.632980    0.609810    0.107089     0.007504
AU236   AU        0.631094    0.568357    0.077124     0.007504
PT237   PT        0.269701    0.638152    0.109064     0.004505
PT238   PT        0.305213    0.677056    0.113011     0.004505
AU239   AU        0.339452    0.642260    0.110641     0.007504
AU240   AU        0.370061    0.641698    0.075173     0.007504
PT241   PT        0.371573    0.678090    0.107684     0.004505
AU242   AU        0.402260    0.642001    0.111470     0.007504
AU243   AU        0.406121    0.677630    0.077117     0.007504
AU244   AU        0.436070    0.642957    0.076967     0.007504
AU245   AU        0.436110    0.676818    0.111775     0.007504
AU246   AU        0.467877    0.641840    0.112049     0.007504
AU247   AU        0.466364    0.680708    0.075653     0.007504
AU248   AU        0.500547    0.642393    0.076354     0.007504
AU249   AU        0.498615    0.675504    0.112957     0.007504
PT250   PT        0.532649    0.641746    0.112379     0.004505
PT251   PT        0.564157    0.678320    0.111428     0.004505
AU252   AU        0.599332    0.639445    0.111208     0.007504
PT253   PT        0.403846    0.712463    0.110423     0.004505
PT254   PT        0.466525    0.715445    0.110226     0.004505
PT255   PT        0.299413    0.109760    0.184308     0.004505
PT256   PT        0.368448    0.113952    0.186829     0.004505
PT257   PT        0.402965    0.078446    0.187524     0.004505
PT258   PT        0.401513    0.107670    0.149905     0.004505
PT259   PT        0.436641    0.111586    0.185579     0.004505
PT260   PT        0.470713    0.037569    0.145091     0.004505
AU261   AU        0.467046    0.108293    0.148116     0.007504
PT262   PT        0.498636    0.112478    0.187078     0.004505
AU263   AU        0.568652    0.109711    0.186083     0.007504
AU264   AU        0.238566    0.185218    0.184101     0.007504
AU265   AU        0.272543    0.148923    0.186490     0.007504
PT266   PT        0.239196    0.147805    0.150695     0.004505
PT267   PT        0.304783    0.147579    0.152733     0.004505
AU268   AU        0.305840    0.183298    0.187367     0.007504
PT269   PT        0.338918    0.149968    0.184846     0.004505
AU270   AU        0.336913    0.183492    0.149965     0.007504
PT271   PT        0.370342    0.148214    0.142880     0.004505
PT272   PT        0.371842    0.183108    0.185477     0.004505
AU273   AU        0.403286    0.146857    0.185785     0.007504
PT274   PT        0.405511    0.182548    0.144041     0.004505
PT275   PT        0.436074    0.144889    0.147214     0.004505
PT276   PT        0.436878    0.182914    0.181242     0.004505
AU277   AU        0.469126    0.146979    0.183227     0.007504
AU278   AU        0.470160    0.180683    0.144646     0.007504
PT279   PT        0.500852    0.145406    0.146033     0.004505
AU280   AU        0.501097    0.181201    0.183565     0.007504
PT281   PT        0.531319    0.145825    0.181210     0.004505
AU282   AU        0.533684    0.182718    0.148390     0.007504
AU283   AU        0.566417    0.142166    0.146411     0.007504
AU284   AU        0.564731    0.181023    0.184105     0.007504
AU285   AU        0.605634    0.140172    0.173943     0.007504
AU286   AU        0.598198    0.182102    0.148131     0.007504
AU287   AU        0.631592    0.179221    0.182955     0.007504
AU288   AU        0.168892    0.254251    0.180201     0.007504
PT289   PT        0.204864    0.221007    0.183598     0.004505
AU290   AU        0.206658    0.255390    0.141460     0.007504
AU291   AU        0.237000    0.219537    0.143665     0.007504
AU292   AU        0.239753    0.253827    0.184659     0.007504
PT293   PT        0.273157    0.218483    0.186246     0.004505
AU294   AU        0.269919    0.254295    0.148234     0.007504
PT295   PT        0.303866    0.219548    0.151180     0.004505
PT296   PT        0.304737    0.255468    0.187283     0.004505
PT297   PT        0.336984    0.219162    0.187211     0.004505
AU298   AU        0.339306    0.253414    0.149740     0.007504
PT299   PT        0.371983    0.215741    0.148605     0.004505
PT300   PT        0.370447    0.254960    0.185966     0.004505
AU301   AU        0.402671    0.218603    0.186721     0.007504
PT302   PT        0.401761    0.251042    0.149460     0.004505
PT303   PT        0.438003    0.217349    0.145947     0.004505
AU304   AU        0.436775    0.251650    0.183654     0.007504
AU305   AU        0.470577    0.215523    0.182231     0.007504
AU306   AU        0.471114    0.252440    0.148897     0.007504
AU307   AU        0.501104    0.217924    0.145295     0.007504
AU308   AU        0.502027    0.252019    0.184086     0.007504
PT309   PT        0.532001    0.217951    0.185649     0.004505
AU310   AU        0.535069    0.250880    0.148292     0.007504
AU311   AU        0.568480    0.217505    0.146286     0.007504
PT312   PT        0.565663    0.254279    0.183685     0.004505
PT313   PT        0.597682    0.216259    0.185116     0.004505
AU314   AU        0.601011    0.251456    0.148219     0.007504
AU315   AU        0.635237    0.215373    0.147624     0.007504
AU316   AU        0.634589    0.254137    0.184340     0.007504
PT317   PT        0.666436    0.217628    0.182737     0.004505
AU318   AU        0.667508    0.251805    0.145788     0.007504
AU319   AU        0.702196    0.253537    0.181564     0.007504
PT320   PT        0.137863    0.294445    0.182679     0.004505
AU321   AU        0.172633    0.287313    0.144188     0.007504
PT322   PT        0.173097    0.324997    0.185808     0.004505
AU323   AU        0.205725    0.285035    0.182105     0.007504
AU324   AU        0.204767    0.326652    0.151395     0.007504
AU325   AU        0.238492    0.289771    0.148945     0.007504
AU326   AU        0.240869    0.324367    0.184275     0.007504
AU327   AU        0.273458    0.288385    0.185725     0.007504
AU328   AU        0.269766    0.325977    0.145791     0.007504
AU329   AU        0.301250    0.290113    0.146863     0.007504
AU330   AU        0.304896    0.323229    0.185162     0.007504
PT331   PT        0.336930    0.288945    0.187755     0.004505
PT332   PT        0.336304    0.324977    0.152469     0.004505
AU333   AU        0.371517    0.290332    0.151970     0.007504
PT334   PT        0.369665    0.325365    0.186151     0.004505
PT335   PT        0.405376    0.286979    0.185133     0.004505
PT336   PT        0.402681    0.324895    0.152540     0.004505
PT337   PT        0.436334    0.287125    0.148756     0.004505
AU338   AU        0.435074    0.324622    0.186963     0.007504
AU339   AU        0.468648    0.289549    0.184804     0.007504
AU340   AU        0.468223    0.324444    0.152042     0.007504
PT341   PT        0.503046    0.285903    0.148383     0.004505
PT342   PT        0.502048    0.325056    0.183759     0.004505
AU343   AU        0.532169    0.290700    0.188239     0.007504
PT344   PT        0.534616    0.325168    0.150624     0.004505
AU345   AU        0.568050    0.289702    0.148356     0.007504
AU346   AU        0.568633    0.326017    0.185185     0.007504
AU347   AU        0.598992    0.287533    0.185619     0.007504
AU348   AU        0.602360    0.323752    0.148012     0.007504
PT349   PT        0.633677    0.287219    0.145338     0.004505
PT350   PT        0.631348    0.322560    0.183397     0.004505
PT351   PT        0.668145    0.290065    0.184222     0.004505
AU352   AU        0.667151    0.322921    0.146826     0.007504
PT353   PT        0.697611    0.287328    0.146923     0.004505
AU354   AU        0.703433    0.324098    0.181401     0.007504
PT355   PT        0.736495    0.292270    0.181986     0.004505
AU356   AU        0.104657    0.396929    0.178569     0.007504
PT357   PT        0.137658    0.358737    0.185504     0.004505
AU358   AU        0.139562    0.344438    0.029864     0.007504
AU359   AU        0.170964    0.360615    0.148483     0.007504
AU360   AU        0.170869    0.394692    0.185611     0.007504
AU361   AU        0.206737    0.361503    0.185021     0.007504
AU362   AU        0.204021    0.395087    0.148639     0.007504
AU363   AU        0.236929    0.360252    0.148440     0.007504
PT364   PT        0.238924    0.395014    0.187421     0.004505
PT365   PT        0.270944    0.360016    0.185149     0.004505
AU366   AU        0.270641    0.395719    0.148649     0.007504
PT367   PT        0.303390    0.360254    0.151258     0.004505
PT368   PT        0.305544    0.394899    0.185704     0.004505
PT369   PT        0.336429    0.361134    0.186821     0.004505
PT370   PT        0.336833    0.394467    0.150837     0.004505
PT371   PT        0.368846    0.358031    0.151880     0.004505
AU372   AU        0.369742    0.394219    0.186657     0.007504
PT373   PT        0.402023    0.360199    0.186812     0.004505
AU374   AU        0.401313    0.394433    0.150536     0.007504
AU375   AU        0.434692    0.359641    0.151131     0.007504
PT376   PT        0.436004    0.395220    0.186120     0.004505
AU377   AU        0.470137    0.360019    0.185640     0.007504
AU378   AU        0.466152    0.393628    0.149978     0.007504
AU379   AU        0.499325    0.360306    0.149491     0.007504
PT380   PT        0.501532    0.394594    0.186306     0.004505
AU381   AU        0.532781    0.361004    0.185535     0.007504
AU382   AU        0.533099    0.393547    0.148310     0.007504
PT383   PT        0.569997    0.360542    0.148204     0.004505
PT384   PT        0.565801    0.393105    0.183612     0.004505
AU385   AU        0.600456    0.359289    0.182652     0.007504
PT386   PT        0.602245    0.396030    0.147873     0.004505
PT387   PT        0.634339    0.357872    0.148431     0.004505
AU388   AU        0.633027    0.395582    0.184443     0.007504
PT389   PT        0.668337    0.357399    0.185076     0.004505
PT390   PT        0.667308    0.394804    0.148762     0.004505
PT391   PT        0.700954    0.355666    0.145615     0.004505
AU392   AU        0.701566    0.390987    0.181392     0.007504
AU393   AU        0.734691    0.359288    0.183669     0.007504
PT394   PT        0.731559    0.391188    0.144731     0.004505
AU395   AU        0.764115    0.396823    0.182120     0.007504
PT396   PT        0.104029    0.466060    0.183824     0.004505
AU397   AU        0.137482    0.428502    0.180012     0.007504
PT398   PT        0.138267    0.466555    0.147295     0.004505
PT399   PT        0.171993    0.429628    0.145763     0.004505
AU400   AU        0.172145    0.462751    0.181007     0.007504
PT401   PT        0.206543    0.428050    0.186057     0.004505
AU402   AU        0.205966    0.465652    0.147184     0.007504
PT403   PT        0.237873    0.428918    0.150774     0.004505
PT404   PT        0.239026    0.464228    0.183678     0.004505
AU405   AU        0.271455    0.429037    0.185458     0.007504
PT406   PT        0.271250    0.463214    0.148978     0.004505
AU407   AU        0.302357    0.429423    0.144399     0.007504
PT408   PT        0.302702    0.463812    0.184342     0.004505
AU409   AU        0.335762    0.431154    0.185641     0.007504
PT410   PT        0.336471    0.463474    0.147530     0.004505
AU411   AU        0.370549    0.429953    0.150789     0.007504
PT412   PT        0.370348    0.465450    0.184666     0.004505
PT413   PT        0.401835    0.431219    0.186277     0.004505
AU414   AU        0.401971    0.466979    0.149740     0.007504
AU415   AU        0.433700    0.429065    0.149722     0.007504
PT416   PT        0.435216    0.466553    0.187215     0.004505
AU417   AU        0.469296    0.429532    0.183615     0.007504
AU418   AU        0.467637    0.464238    0.150806     0.007504
AU419   AU        0.502724    0.428925    0.149583     0.007504
PT420   PT        0.501363    0.464888    0.185684     0.004505
PT421   PT        0.533435    0.430392    0.186749     0.004505
PT422   PT        0.534870    0.466837    0.150926     0.004505
AU423   AU        0.568057    0.428124    0.148210     0.007504
PT424   PT        0.568414    0.463441    0.185555     0.004505
PT425   PT        0.600083    0.430094    0.184773     0.004505
AU426   AU        0.600330    0.463139    0.149978     0.007504
PT427   PT        0.635049    0.431405    0.148682     0.004505
AU428   AU        0.634818    0.464367    0.185156     0.007504
AU429   AU        0.668245    0.427622    0.181431     0.007504
AU430   AU        0.665872    0.466673    0.147334     0.007504
AU431   AU        0.701414    0.429248    0.146102     0.007504
PT432   PT        0.698684    0.463493    0.183806     0.004505
AU433   AU        0.730482    0.430506    0.181771     0.007504
AU434   AU        0.733801    0.464460    0.144782     0.007504
PT435   PT        0.769121    0.462002    0.181109     0.004505
AU436   AU        0.136768    0.500529    0.182842     0.007504
AU437   AU        0.172852    0.499235    0.147831     0.007504
AU438   AU        0.172819    0.535613    0.183177     0.007504
PT439   PT        0.207663    0.499592    0.185989     0.004505
AU440   AU        0.203597    0.533266    0.145650     0.007504
AU441   AU        0.240600    0.499800    0.149903     0.007504
AU442   AU        0.238619    0.534810    0.184157     0.007504
AU443   AU        0.272626    0.502273    0.185260     0.007504
PT444   PT        0.270492    0.539474    0.148288     0.004505
PT445   PT        0.304012    0.496447    0.149011     0.004505
AU446   AU        0.306637    0.536286    0.185950     0.007504
AU447   AU        0.336936    0.499422    0.184706     0.007504
AU448   AU        0.336223    0.535396    0.147278     0.007504
AU449   AU        0.370413    0.501393    0.149429     0.007504
AU450   AU        0.368337    0.534986    0.183908     0.007504
AU451   AU        0.402105    0.500950    0.185590     0.007504
AU452   AU        0.402877    0.533488    0.148355     0.007504
PT453   PT        0.435723    0.502633    0.148992     0.004505
PT454   PT        0.435965    0.534727    0.186084     0.004505
AU455   AU        0.469296    0.500206    0.184925     0.007504
PT456   PT        0.471190    0.537065    0.150219     0.004505
PT457   PT        0.499392    0.500436    0.149824     0.004505
AU458   AU        0.501066    0.535581    0.187551     0.007504
PT459   PT        0.531796    0.499471    0.187694     0.004505
AU460   AU        0.532524    0.535072    0.149051     0.007504
PT461   PT        0.568671    0.500285    0.151888     0.004505
PT462   PT        0.567906    0.534209    0.185990     0.004505
AU463   AU        0.600608    0.497720    0.186352     0.007504
AU464   AU        0.599660    0.535175    0.147931     0.007504
AU465   AU        0.632873    0.497847    0.148623     0.007504
PT466   PT        0.631717    0.535418    0.186769     0.004505
PT467   PT        0.665401    0.501711    0.186370     0.004505
PT468   PT        0.666787    0.533071    0.148680     0.004505
AU469   AU        0.699960    0.498462    0.147765     0.007504
AU470   AU        0.700993    0.535086    0.180250     0.007504
PT471   PT        0.766742    0.538257    0.185128     0.004505
PT472   PT        0.135478    0.568398    0.179260     0.004505
PT473   PT        0.172884    0.572599    0.144141     0.004505
AU474   AU        0.135860    0.647611    0.114676     0.007504
AU475   AU        0.206056    0.569637    0.181080     0.007504
AU476   AU        0.201619    0.609075    0.148368     0.007504
AU477   AU        0.237798    0.573870    0.145133     0.007504
AU478   AU        0.239768    0.606337    0.183843     0.007504
PT479   PT        0.271495    0.568994    0.186201     0.004505
PT480   PT        0.274192    0.607041    0.145356     0.004505
AU481   AU        0.305095    0.571504    0.148018     0.007504
AU482   AU        0.303649    0.604827    0.185070     0.007504
AU483   AU        0.337424    0.571476    0.183695     0.007504
AU484   AU        0.337927    0.607541    0.148451     0.007504
AU485   AU        0.370906    0.569182    0.149256     0.007504
PT486   PT        0.371481    0.609109    0.182271     0.004505
PT487   PT        0.402131    0.569311    0.185502     0.004505
AU488   AU        0.403650    0.605057    0.150504     0.007504
PT489   PT        0.434524    0.571174    0.150114     0.004505
AU490   AU        0.436523    0.605511    0.185023     0.007504
PT491   PT        0.470728    0.571998    0.186752     0.004505
AU492   AU        0.468549    0.606906    0.150187     0.007504
PT493   PT        0.502142    0.574345    0.150229     0.004505
AU494   AU        0.500217    0.609256    0.185443     0.007504
AU495   AU        0.534047    0.572957    0.184795     0.007504
AU496   AU        0.535132    0.607372    0.146864     0.007504
AU497   AU        0.566958    0.571072    0.146026     0.007504
AU498   AU        0.566989    0.607409    0.184866     0.007504
PT499   PT        0.598024    0.570635    0.182711     0.004505
PT500   PT        0.599708    0.603739    0.147069     0.004505
AU501   AU        0.633548    0.569697    0.148392     0.007504
AU502   AU        0.634979    0.609524    0.183848     0.007504
PT503   PT        0.668493    0.570257    0.180008     0.004505
PT504   PT        0.664750    0.606225    0.142347     0.004505
AU505   AU        0.737555    0.606850    0.076522     0.007504
AU506   AU        0.698155    0.605546    0.181348     0.007504
AU507   AU        0.730336    0.569504    0.179470     0.007504
AU508   AU        0.207463    0.646775    0.181595     0.007504
AU509   AU        0.237256    0.638805    0.145114     0.007504
PT510   PT        0.241745    0.678235    0.181879     0.004505
PT511   PT        0.272703    0.643894    0.184396     0.004505
PT512   PT        0.270142    0.675920    0.144681     0.004505
AU513   AU        0.307361    0.641501    0.147602     0.007504
PT514   PT        0.307380    0.677103    0.182209     0.004505
PT515   PT        0.337280    0.639254    0.185228     0.004505
AU516   AU        0.339824    0.676748    0.144929     0.007504
AU517   AU        0.370429    0.642248    0.145703     0.007504
AU518   AU        0.368676    0.676635    0.183736     0.007504
PT519   PT        0.405559    0.642457    0.185451     0.004505
PT520   PT        0.402795    0.678955    0.146963     0.004505
AU521   AU        0.436786    0.644043    0.148846     0.007504
AU522   AU        0.436088    0.679592    0.183654     0.007504
AU523   AU        0.468511    0.643628    0.185589     0.007504
PT524   PT        0.470668    0.679896    0.151212     0.004505
AU525   AU        0.501068    0.641582    0.150903     0.007504
AU526   AU        0.501905    0.676879    0.185199     0.007504
PT527   PT        0.536169    0.642501    0.186288     0.004505
AU528   AU        0.533227    0.677537    0.150888     0.007504
AU529   AU        0.568258    0.640676    0.146614     0.007504
AU530   AU        0.568391    0.675155    0.182196     0.007504
AU531   AU        0.599866    0.640175    0.182777     0.007504
AU532   AU        0.600755    0.676752    0.142604     0.007504
PT533   PT        0.630858    0.640681    0.145774     0.004505
AU534   AU        0.631956    0.675658    0.183180     0.007504
AU535   AU        0.664455    0.637993    0.180067     0.007504
PT536   PT        0.273257    0.712152    0.181763     0.004505
AU537   AU        0.303884    0.712670    0.147122     0.007504
AU538   AU        0.305042    0.750991    0.183051     0.007504
AU539   AU        0.337489    0.716011    0.183286     0.007504
PT540   PT        0.369948    0.713457    0.148269     0.004505
PT541   PT        0.372849    0.747530    0.184858     0.004505
AU542   AU        0.404433    0.712606    0.183241     0.007504
AU543   AU        0.403802    0.749441    0.146890     0.007504
PT544   PT        0.436468    0.713317    0.144151     0.004505
AU545   AU        0.437055    0.748599    0.181270     0.007504
PT546   PT        0.469314    0.714127    0.186316     0.004505
PT547   PT        0.470074    0.748221    0.145091     0.004505
PT548   PT        0.500808    0.712779    0.147233     0.004505
AU549   AU        0.500903    0.747326    0.183423     0.007504
PT550   PT        0.534957    0.714713    0.183770     0.004505
PT551   PT        0.566007    0.713366    0.146365     0.004505
PT552   PT        0.570458    0.750949    0.182246     0.004505
AU553   AU        0.598978    0.712948    0.179699     0.007504
AU554   AU        0.402506    0.784656    0.185742     0.007504
PT555   PT        0.470829    0.783444    0.180799     0.004505
AU556   AU        0.368655    0.038721    0.252845     0.007504
PT557   PT        0.434886    0.042936    0.257781     0.004505
AU558   AU        0.498942    0.041136    0.259228     0.007504
AU559   AU        0.236347    0.110749    0.254924     0.007504
PT560   PT        0.271704    0.074075    0.255178     0.004505
AU561   AU        0.272684    0.112533    0.223516     0.007504
AU562   AU        0.303917    0.115131    0.257055     0.007504
AU563   AU        0.336822    0.079239    0.256629     0.007504
PT564   PT        0.336849    0.113291    0.222124     0.004505
AU565   AU        0.368627    0.078166    0.222193     0.007504
AU566   AU        0.369990    0.114048    0.256592     0.007504
AU567   AU        0.400242    0.077311    0.255940     0.007504
AU568   AU        0.401904    0.115489    0.223099     0.007504
AU569   AU        0.436369    0.075970    0.222826     0.007504
AU570   AU        0.435259    0.112784    0.254912     0.007504
PT571   PT        0.466346    0.079479    0.257611     0.004505
AU572   AU        0.469157    0.113356    0.221989     0.007504
AU573   AU        0.500117    0.077661    0.222636     0.007504
AU574   AU        0.500441    0.114504    0.258175     0.007504
PT575   PT        0.532721    0.076146    0.255459     0.004505
AU576   AU        0.532185    0.110138    0.219433     0.007504
PT577   PT        0.565869    0.113048    0.254792     0.004505
AU578   AU        0.601066    0.073323    0.258411     0.007504
PT579   PT        0.604948    0.114079    0.217526     0.004505
AU580   AU        0.636480    0.107593    0.255283     0.007504
AU581   AU        0.158163    0.169609    0.244407     0.007504
PT582   PT        0.202142    0.143834    0.256272     0.004505
AU583   AU        0.205231    0.181742    0.217480     0.007504
PT584   PT        0.237604    0.143431    0.220177     0.004505
AU585   AU        0.235299    0.179717    0.254305     0.007504
PT586   PT        0.269582    0.146867    0.257468     0.004505
PT587   PT        0.269033    0.183863    0.220798     0.004505
PT588   PT        0.303026    0.147985    0.220675     0.004505
PT589   PT        0.304606    0.182987    0.254065     0.004505
PT590   PT        0.337443    0.149957    0.258248     0.004505
PT591   PT        0.336735    0.184641    0.220996     0.004505
PT592   PT        0.369692    0.148415    0.220791     0.004505
PT593   PT        0.368364    0.183637    0.257849     0.004505
PT594   PT        0.402098    0.150433    0.257687     0.004505
PT595   PT        0.403771    0.182253    0.220971     0.004505
AU596   AU        0.436453    0.148321    0.218559     0.007504
PT597   PT        0.435312    0.184039    0.258562     0.004505
AU598   AU        0.468265    0.149556    0.256351     0.007504
AU599   AU        0.468899    0.182552    0.222798     0.007504
AU600   AU        0.501425    0.148541    0.223876     0.007504
PT601   PT        0.501999    0.183193    0.257561     0.004505
AU602   AU        0.533689    0.148162    0.258108     0.007504
AU603   AU        0.533779    0.182867    0.222376     0.007504
AU604   AU        0.564900    0.145515    0.219421     0.007504
PT605   PT        0.566923    0.182583    0.255391     0.004505
AU606   AU        0.599324    0.148053    0.256035     0.007504
AU607   AU        0.598665    0.178658    0.218370     0.007504
PT608   PT        0.637871    0.148212    0.220464     0.004505
PT609   PT        0.632168    0.183003    0.252386     0.004505
PT610   PT        0.667454    0.146975    0.255630     0.004505
PT611   PT        0.670721    0.183923    0.219334     0.004505
AU612   AU        0.698997    0.186230    0.255414     0.007504
AU613   AU        0.106020    0.252414    0.254459     0.007504
AU614   AU        0.137929    0.214245    0.255191     0.007504
PT615   PT        0.138616    0.251633    0.221184     0.004505
AU616   AU        0.174080    0.219049    0.218159     0.007504
PT617   PT        0.174101    0.254182    0.256389     0.004505
AU618   AU        0.204595    0.216392    0.253625     0.007504
PT619   PT        0.204892    0.254337    0.219751     0.004505
PT620   PT        0.238419    0.221073    0.220269     0.004505
PT621   PT        0.239104    0.254339    0.256655     0.004505
PT622   PT        0.272021    0.218943    0.253640     0.004505
PT623   PT        0.270998    0.255373    0.222367     0.004505
AU624   AU        0.305471    0.220311    0.222320     0.007504
PT625   PT        0.306577    0.253445    0.255488     0.004505
PT626   PT        0.338286    0.218500    0.258407     0.004505
PT627   PT        0.337210    0.252887    0.223201     0.004505
AU628   AU        0.371930    0.217487    0.222259     0.007504
PT629   PT        0.369155    0.254142    0.258510     0.004505
PT630   PT        0.402561    0.217812    0.256428     0.004505
PT631   PT        0.402916    0.255706    0.221272     0.004505
PT632   PT        0.434828    0.218958    0.219440     0.004505
AU633   AU        0.433926    0.253846    0.255385     0.007504
PT634   PT        0.468177    0.218657    0.255218     0.004505
PT635   PT        0.469403    0.254781    0.219159     0.004505
PT636   PT        0.500183    0.218466    0.222132     0.004505
AU637   AU        0.501499    0.254240    0.256095     0.007504
AU638   AU        0.533206    0.217135    0.256946     0.007504
AU639   AU        0.533431    0.254203    0.220630     0.007504
PT640   PT        0.565196    0.218953    0.221217     0.004505
AU641   AU        0.566117    0.255262    0.257408     0.007504
PT642   PT        0.599050    0.219785    0.255642     0.004505
PT643   PT        0.598194    0.253419    0.221523     0.004505
AU644   AU        0.631198    0.218464    0.218491     0.007504
PT645   PT        0.630750    0.255338    0.258342     0.004505
AU646   AU        0.665566    0.219148    0.253576     0.007504
PT647   PT        0.667867    0.254790    0.218326     0.004505
PT648   PT        0.701763    0.219153    0.215583     0.004505
AU649   AU        0.700287    0.253173    0.253558     0.007504
AU650   AU        0.735121    0.219474    0.252790     0.007504
PT651   PT        0.734975    0.254960    0.216242     0.004505
AU652   AU        0.768394    0.248644    0.250956     0.007504
AU653   AU        0.103151    0.327157    0.255037     0.007504
AU654   AU        0.137954    0.288661    0.255767     0.007504
AU655   AU        0.137090    0.323902    0.220083     0.007504
PT656   PT        0.170082    0.289094    0.217513     0.004505
PT657   PT        0.173095    0.325899    0.254390     0.004505
PT658   PT        0.206509    0.288583    0.255919     0.004505
AU659   AU        0.207342    0.323989    0.217363     0.007504
AU660   AU        0.240295    0.288913    0.218922     0.007504
PT661   PT        0.240243    0.324286    0.256797     0.004505
PT662   PT        0.272859    0.288977    0.256565     0.004505
PT663   PT        0.273058    0.323668    0.220776     0.004505
PT664   PT        0.305366    0.287777    0.223564     0.004505
PT665   PT        0.304500    0.325623    0.257062     0.004505
PT666   PT        0.337824    0.290205    0.255536     0.004505
AU667   AU        0.336370    0.324532    0.221996     0.007504
AU668   AU        0.370109    0.288839    0.221226     0.007504
PT669   PT        0.370779    0.324955    0.257678     0.004505
AU670   AU        0.401990    0.290831    0.256543     0.007504
PT671   PT        0.402972    0.322931    0.221799     0.004505
AU672   AU        0.436154    0.289303    0.220718     0.007504
PT673   PT        0.437159    0.324986    0.254988     0.004505
PT674   PT        0.468116    0.287785    0.255911     0.004505
PT675   PT        0.468612    0.325847    0.219666     0.004505
PT676   PT        0.499849    0.289152    0.221196     0.004505
PT677   PT        0.499629    0.324413    0.255397     0.004505
PT678   PT        0.533775    0.289861    0.255237     0.004505
AU679   AU        0.532314    0.326013    0.221195     0.007504
AU680   AU        0.565525    0.290977    0.221594     0.007504
PT681   PT        0.566293    0.325125    0.253371     0.004505
AU682   AU        0.599245    0.288078    0.253999     0.007504
PT683   PT        0.598485    0.325064    0.221375     0.004505
PT684   PT        0.632579    0.288728    0.220091     0.004505
AU685   AU        0.631437    0.322350    0.256703     0.007504
PT686   PT        0.667743    0.286282    0.254250     0.004505
AU687   AU        0.665119    0.324096    0.223333     0.007504
AU688   AU        0.702538    0.289991    0.219978     0.007504
AU689   AU        0.699917    0.322951    0.256210     0.007504
AU690   AU        0.734270    0.287780    0.254294     0.007504
PT691   PT        0.731924    0.324766    0.218812     0.004505
AU692   AU        0.766817    0.323111    0.250053     0.007504
PT693   PT        0.069437    0.363115    0.251942     0.004505
AU694   AU        0.102921    0.363544    0.218615     0.007504
AU695   AU        0.104135    0.395234    0.255126     0.007504
AU696   AU        0.137113    0.359563    0.254222     0.007504
AU697   AU        0.139983    0.393011    0.219497     0.007504
PT698   PT        0.174516    0.360098    0.220228     0.004505
AU699   AU        0.172235    0.393846    0.255316     0.007504
AU700   AU        0.207599    0.358352    0.255851     0.007504
PT701   PT        0.207291    0.394063    0.221726     0.004505
PT702   PT        0.238662    0.359691    0.221986     0.004505
AU703   AU        0.240728    0.394412    0.255657     0.007504
PT704   PT        0.271478    0.358677    0.257323     0.004505
PT705   PT        0.271696    0.394787    0.221939     0.004505
AU706   AU        0.304103    0.359650    0.220551     0.007504
PT707   PT        0.304559    0.394362    0.255959     0.004505
PT708   PT        0.337367    0.358658    0.257926     0.004505
PT709   PT        0.338761    0.394882    0.222588     0.004505
PT710   PT        0.369470    0.357258    0.221309     0.004505
AU711   AU        0.368850    0.393625    0.257661     0.007504
AU712   AU        0.403538    0.360299    0.255201     0.007504
PT713   PT        0.403323    0.394782    0.221503     0.004505
AU714   AU        0.435034    0.359580    0.221072     0.007504
PT715   PT        0.435240    0.395000    0.256083     0.004505
PT716   PT        0.467018    0.360898    0.255758     0.004505
AU717   AU        0.467052    0.393614    0.220581     0.007504
PT718   PT        0.500457    0.359709    0.221103     0.004505
AU719   AU        0.501135    0.395280    0.256558     0.007504
AU720   AU        0.533408    0.358721    0.255816     0.007504
PT721   PT        0.534172    0.393023    0.222441     0.004505
PT722   PT        0.564645    0.358735    0.220906     0.004505
PT723   PT        0.567755    0.393194    0.256732     0.004505
PT724   PT        0.600356    0.360587    0.257121     0.004505
AU725   AU        0.599486    0.394516    0.220066     0.007504
AU726   AU        0.630960    0.358264    0.219819     0.007504
AU727   AU        0.633544    0.392433    0.253210     0.007504
PT728   PT        0.667242    0.360105    0.254649     0.004505
AU729   AU        0.669292    0.396477    0.217918     0.007504
AU730   AU        0.701376    0.360303    0.218760     0.007504
AU731   AU        0.700126    0.396566    0.253307     0.007504
PT732   PT        0.733814    0.358938    0.253690     0.004505
AU733   AU        0.733490    0.395199    0.219389     0.007504
AU734   AU        0.768549    0.360833    0.215922     0.007504
AU735   AU        0.768534    0.395349    0.252807     0.007504
AU736   AU        0.802538    0.360504    0.255670     0.007504
AU737   AU        0.074258    0.429413    0.255177     0.007504
PT738   PT        0.108242    0.427752    0.218562     0.004505
AU739   AU        0.106541    0.463359    0.254569     0.007504
PT740   PT        0.139934    0.429904    0.256780     0.004505
PT741   PT        0.139784    0.463845    0.216944     0.004505
AU742   AU        0.173294    0.428564    0.218933     0.007504
PT743   PT        0.173126    0.465955    0.255735     0.004505
PT744   PT        0.207397    0.427136    0.256130     0.004505
PT745   PT        0.204215    0.462724    0.221266     0.004505
AU746   AU        0.239523    0.429492    0.220923     0.007504
PT747   PT        0.236661    0.465474    0.254952     0.004505
PT748   PT        0.271857    0.429908    0.255824     0.004505
PT749   PT        0.272058    0.464524    0.220708     0.004505
PT750   PT        0.304587    0.429477    0.220029     0.004505
PT751   PT        0.305350    0.464423    0.255725     0.004505
PT752   PT        0.336703    0.429231    0.257687     0.004505
AU753   AU        0.337295    0.466556    0.220910     0.007504
AU754   AU        0.369031    0.431403    0.220764     0.007504
PT755   PT        0.368647    0.465033    0.258047     0.004505
AU756   AU        0.402162    0.429763    0.255972     0.007504
AU757   AU        0.402195    0.465357    0.220226     0.007504
AU758   AU        0.436152    0.431592    0.221577     0.007504
PT759   PT        0.435691    0.464089    0.255251     0.004505
PT760   PT        0.467857    0.429931    0.256777     0.004505
PT761   PT        0.468790    0.464876    0.220200     0.004505
AU762   AU        0.499293    0.429043    0.222267     0.007504
AU763   AU        0.501737    0.464576    0.255811     0.007504
AU764   AU        0.533745    0.431356    0.257346     0.007504
PT765   PT        0.534932    0.465224    0.221900     0.004505
AU766   AU        0.565527    0.428359    0.221815     0.007504
PT767   PT        0.566800    0.465559    0.254985     0.004505
AU768   AU        0.600415    0.429444    0.253599     0.007504
AU769   AU        0.601287    0.464931    0.221693     0.007504
AU770   AU        0.632997    0.430801    0.221520     0.007504
PT771   PT        0.632478    0.467030    0.256342     0.004505
AU772   AU        0.665965    0.430143    0.254263     0.007504
PT773   PT        0.666030    0.464774    0.218590     0.004505
AU774   AU        0.698929    0.427164    0.216336     0.007504
AU775   AU        0.700648    0.464366    0.250866     0.007504
AU776   AU        0.732969    0.432237    0.251365     0.007504
PT777   PT        0.734124    0.466775    0.213520     0.004505
AU778   AU        0.767398    0.430854    0.216741     0.007504
PT779   PT        0.768091    0.465277    0.252905     0.004505
PT780   PT        0.802446    0.428510    0.249938     0.004505
AU781   AU        0.067585    0.516743    0.243839     0.007504
PT782   PT        0.104651    0.498276    0.218183     0.004505
AU783   AU        0.107349    0.535653    0.255702     0.007504
AU784   AU        0.139047    0.499324    0.252705     0.007504
AU785   AU        0.138559    0.537185    0.221235     0.007504
AU786   AU        0.171774    0.500065    0.218042     0.007504
PT787   PT        0.173845    0.536742    0.253519     0.004505
PT788   PT        0.205774    0.501040    0.254790     0.004505
AU789   AU        0.206954    0.534945    0.219351     0.007504
AU790   AU        0.239309    0.499246    0.220908     0.007504
PT791   PT        0.239694    0.533344    0.255920     0.004505
PT792   PT        0.270963    0.497655    0.256681     0.004505
PT793   PT        0.269651    0.534065    0.220898     0.004505
AU794   AU        0.303644    0.500664    0.221189     0.007504
PT795   PT        0.304831    0.534254    0.256402     0.004505
PT796   PT        0.337440    0.499130    0.255603     0.004505
PT797   PT        0.336710    0.534980    0.220512     0.004505
PT798   PT        0.368437    0.500431    0.220421     0.004505
PT799   PT        0.369533    0.535061    0.255300     0.004505
AU800   AU        0.403090    0.499733    0.256637     0.007504
AU801   AU        0.401996    0.536035    0.219192     0.007504
AU802   AU        0.435889    0.500178    0.221475     0.007504
AU803   AU        0.435817    0.534225    0.256556     0.007504
AU804   AU        0.466852    0.499990    0.255195     0.007504
AU805   AU        0.468117    0.536199    0.221044     0.007504
AU806   AU        0.499237    0.501605    0.221655     0.007504
AU807   AU        0.499183    0.534643    0.257664     0.007504
AU808   AU        0.533023    0.500345    0.258067     0.007504
PT809   PT        0.532631    0.533554    0.222596     0.004505
PT810   PT        0.567195    0.498239    0.223730     0.004505
AU811   AU        0.565714    0.533907    0.255256     0.007504
PT812   PT        0.600007    0.498840    0.256956     0.004505
PT813   PT        0.598335    0.534628    0.223556     0.004505
AU814   AU        0.632919    0.499861    0.221052     0.007504
AU815   AU        0.633541    0.536653    0.256349     0.007504
AU816   AU        0.668022    0.499127    0.253790     0.007504
PT817   PT        0.665406    0.536421    0.219004     0.004505
AU818   AU        0.699906    0.501082    0.218508     0.007504
AU819   AU        0.700963    0.535063    0.251743     0.007504
PT820   PT        0.732313    0.499362    0.254496     0.004505
PT821   PT        0.733164    0.535106    0.217988     0.004505
AU822   AU        0.765155    0.501096    0.215607     0.007504
PT823   PT        0.763137    0.535491    0.254425     0.004505
AU824   AU        0.797453    0.503045    0.250788     0.007504
PT825   PT        0.105648    0.605077    0.256518     0.004505
PT826   PT        0.140728    0.573014    0.256895     0.004505
AU827   AU        0.136734    0.602699    0.215989     0.007504
AU828   AU        0.174298    0.572263    0.218035     0.007504
AU829   AU        0.172265    0.608705    0.255203     0.007504
PT830   PT        0.205470    0.571866    0.256664     0.004505
AU831   AU        0.203028    0.611615    0.219011     0.007504
PT832   PT        0.236855    0.568989    0.222396     0.004505
AU833   AU        0.238774    0.608396    0.257113     0.007504
PT834   PT        0.272620    0.570341    0.257452     0.004505
PT835   PT        0.271981    0.604830    0.220316     0.004505
PT836   PT        0.304568    0.569249    0.221861     0.004505
AU837   AU        0.305393    0.606443    0.257986     0.007504
PT838   PT        0.337338    0.570195    0.255915     0.004505
PT839   PT        0.338353    0.606651    0.221980     0.004505
AU840   AU        0.371606    0.569624    0.220197     0.007504
PT841   PT        0.371304    0.605527    0.257307     0.004505
PT842   PT        0.402594    0.571283    0.258186     0.004505
PT843   PT        0.402039    0.606269    0.220382     0.004505
PT844   PT        0.434279    0.569783    0.222186     0.004505
AU845   AU        0.435516    0.606460    0.255025     0.007504
AU846   AU        0.467537    0.570534    0.256549     0.007504
PT847   PT        0.467850    0.605843    0.222074     0.004505
AU848   AU        0.502265    0.571645    0.224065     0.007504
PT849   PT        0.501494    0.604533    0.257443     0.004505
PT850   PT        0.535114    0.568517    0.258655     0.004505
PT851   PT        0.534047    0.605638    0.223914     0.004505
PT852   PT        0.568323    0.571712    0.220660     0.004505
PT853   PT        0.567522    0.605262    0.257537     0.004505
AU854   AU        0.600130    0.571959    0.254879     0.007504
AU855   AU        0.600963    0.607211    0.216512     0.007504
AU856   AU        0.631671    0.572638    0.218275     0.007504
PT857   PT        0.631570    0.604542    0.257286     0.004505
PT858   PT        0.665503    0.568864    0.255645     0.004505
AU859   AU        0.665923    0.604023    0.220308     0.007504
AU860   AU        0.699288    0.570381    0.215991     0.007504
AU861   AU        0.699719    0.603729    0.253932     0.007504
AU862   AU        0.731511    0.572296    0.254856     0.007504
AU863   AU        0.733690    0.604640    0.216102     0.007504
AU864   AU        0.767280    0.602123    0.249510     0.007504
PT865   PT        0.132729    0.642385    0.259527     0.004505
PT866   PT        0.135128    0.642317    0.187362     0.004505
AU867   AU        0.167979    0.676998    0.255246     0.007504
AU868   AU        0.202295    0.644463    0.256408     0.007504
AU869   AU        0.170537    0.676141    0.179842     0.007504
AU870   AU        0.238826    0.646391    0.219838     0.007504
AU871   AU        0.239171    0.676138    0.259670     0.007504
AU872   AU        0.273389    0.643265    0.252704     0.007504
PT873   PT        0.273437    0.678647    0.216988     0.004505
PT874   PT        0.304711    0.640404    0.218584     0.004505
AU875   AU        0.305476    0.676313    0.255415     0.007504
PT876   PT        0.336208    0.640994    0.257487     0.004505
AU877   AU        0.337153    0.674587    0.219517     0.007504
PT878   PT        0.368956    0.639690    0.219602     0.004505
PT879   PT        0.370757    0.674474    0.254494     0.004505
PT880   PT        0.401463    0.642280    0.254212     0.004505
AU881   AU        0.402998    0.676279    0.220460     0.007504
AU882   AU        0.435458    0.643574    0.221289     0.007504
AU883   AU        0.434344    0.676806    0.255720     0.007504
AU884   AU        0.471005    0.642853    0.255238     0.007504
PT885   PT        0.468913    0.677390    0.221750     0.004505
PT886   PT        0.501993    0.641561    0.220097     0.004505
AU887   AU        0.501698    0.678219    0.255328     0.007504
AU888   AU        0.533707    0.641778    0.256545     0.007504
AU889   AU        0.536218    0.678431    0.219933     0.007504
AU890   AU        0.568249    0.642083    0.219412     0.007504
AU891   AU        0.569113    0.675572    0.256625     0.007504
PT892   PT        0.599860    0.640845    0.258017     0.004505
AU893   AU        0.599342    0.676642    0.218884     0.007504
PT894   PT        0.633054    0.640025    0.222864     0.004505
PT895   PT        0.631870    0.678268    0.252661     0.004505
PT896   PT        0.666282    0.639444    0.256288     0.004505
AU897   AU        0.665083    0.675627    0.217264     0.007504
PT898   PT        0.698319    0.639023    0.216672     0.004505
AU899   AU        0.698255    0.677990    0.251841     0.007504
AU900   AU        0.732767    0.638612    0.253060     0.007504
AU901   AU        0.205559    0.711963    0.253968     0.007504
AU902   AU        0.240423    0.710484    0.220068     0.007504
PT903   PT        0.239903    0.745790    0.253182     0.004505
AU904   AU        0.271730    0.713136    0.255199     0.007504
PT905   PT        0.272198    0.748141    0.219019     0.004505
PT906   PT        0.307009    0.712987    0.218514     0.004505
PT907   PT        0.304329    0.745731    0.254912     0.004505
PT908   PT        0.339044    0.711452    0.255808     0.004505
AU909   AU        0.339235    0.751098    0.217669     0.007504
AU910   AU        0.369165    0.711625    0.218921     0.007504
PT911   PT        0.370930    0.746775    0.250821     0.004505
PT912   PT        0.402334    0.711080    0.257499     0.004505
AU913   AU        0.405007    0.748334    0.218563     0.007504
PT914   PT        0.437319    0.712339    0.221153     0.004505
AU915   AU        0.435733    0.750463    0.254999     0.007504
AU916   AU        0.468114    0.713016    0.255898     0.007504
PT917   PT        0.467745    0.752018    0.220582     0.004505
AU918   AU        0.502706    0.712293    0.220815     0.007504
PT919   PT        0.501819    0.749790    0.258163     0.004505
PT920   PT        0.536457    0.712177    0.255914     0.004505
PT921   PT        0.534904    0.747468    0.220880     0.004505
PT922   PT        0.570887    0.715634    0.218618     0.004505
AU923   AU        0.568904    0.749649    0.256240     0.007504
PT924   PT        0.597405    0.716027    0.256397     0.004505
PT925   PT        0.600749    0.753119    0.220018     0.004505
AU926   AU        0.631401    0.712895    0.218711     0.007504
AU927   AU        0.631762    0.752402    0.253725     0.007504
PT928   PT        0.665798    0.714111    0.255524     0.004505
PT929   PT        0.270574    0.784039    0.257423     0.004505
PT930   PT        0.333792    0.782913    0.254306     0.004505
PT931   PT        0.367337    0.787384    0.221908     0.004505
AU932   AU        0.370566    0.821209    0.259246     0.007504
AU933   AU        0.403316    0.785188    0.253169     0.007504
AU934   AU        0.436167    0.788191    0.219927     0.007504
PT935   PT        0.436627    0.822958    0.254709     0.004505
AU936   AU        0.470522    0.785227    0.255958     0.007504
PT937   PT        0.504007    0.782421    0.218598     0.004505
AU938   AU        0.502488    0.819884    0.253923     0.007504
AU939   AU        0.533648    0.782191    0.253997     0.007504
AU940   AU        0.601357    0.787535    0.255178     0.007504
PT941   PT        0.301387    0.040503    0.322184     0.004505
AU942   AU        0.338200    0.044512    0.291219     0.007504
PT943   PT        0.371227    0.045744    0.327964     0.004505
PT944   PT        0.402350    0.045265    0.291369     0.004505
PT945   PT        0.433407    0.041763    0.327386     0.004505
PT946   PT        0.466524    0.044058    0.292396     0.004505
AU947   AU        0.499016    0.041401    0.326630     0.007504
AU948   AU        0.533505    0.040130    0.292640     0.007504
AU949   AU        0.564703    0.038409    0.327927     0.007504
AU950   AU        0.205456    0.110819    0.294679     0.007504
AU951   AU        0.239852    0.113103    0.326367     0.007504
AU952   AU        0.272128    0.079388    0.327749     0.007504
AU953   AU        0.271148    0.111382    0.291345     0.007504
AU954   AU        0.303839    0.080173    0.290899     0.007504
AU955   AU        0.303379    0.115886    0.327409     0.007504
PT956   PT        0.338488    0.079796    0.327740     0.004505
AU957   AU        0.337538    0.114949    0.292488     0.007504
AU958   AU        0.369918    0.079821    0.290412     0.007504
PT959   PT        0.370158    0.113737    0.326234     0.004505
PT960   PT        0.403014    0.080457    0.327929     0.004505
AU961   AU        0.401332    0.114818    0.292858     0.007504
AU962   AU        0.435133    0.079697    0.291600     0.007504
AU963   AU        0.434989    0.114398    0.328061     0.007504
AU964   AU        0.466844    0.078201    0.326268     0.007504
PT965   PT        0.467898    0.114635    0.293926     0.004505
AU966   AU        0.501044    0.077225    0.292322     0.007504
PT967   PT        0.499817    0.114365    0.327248     0.004505
AU968   AU        0.532658    0.077073    0.327634     0.007504
AU969   AU        0.533951    0.114492    0.291688     0.007504
PT970   PT        0.563755    0.076516    0.291271     0.004505
AU971   AU        0.567308    0.112223    0.327743     0.007504
AU972   AU        0.598426    0.071780    0.325005     0.007504
AU973   AU        0.597896    0.110929    0.290085     0.007504
AU974   AU        0.635824    0.106964    0.324929     0.007504
PT975   PT        0.672055    0.109058    0.288027     0.004505
AU976   AU        0.137156    0.181800    0.295076     0.007504
PT977   PT        0.173608    0.146176    0.291234     0.004505
AU978   AU        0.173683    0.182811    0.325722     0.007504
AU979   AU        0.206552    0.149704    0.325706     0.007504
AU980   AU        0.207998    0.184237    0.289385     0.007504
AU981   AU        0.236809    0.145972    0.290702     0.007504
AU982   AU        0.237198    0.185867    0.326839     0.007504
AU983   AU        0.269868    0.149147    0.323483     0.007504
AU984   AU        0.269626    0.182643    0.289994     0.007504
PT985   PT        0.302686    0.149365    0.291298     0.004505
PT986   PT        0.304094    0.183558    0.326735     0.004505
AU987   AU        0.336695    0.148892    0.327679     0.007504
PT988   PT        0.337910    0.184019    0.293251     0.004505
PT989   PT        0.370932    0.149596    0.293728     0.004505
PT990   PT        0.369043    0.182840    0.326113     0.004505
PT991   PT        0.401891    0.149034    0.327763     0.004505
AU992   AU        0.401457    0.184061    0.292388     0.007504
AU993   AU        0.434730    0.148531    0.292178     0.007504
AU994   AU        0.435800    0.183367    0.328340     0.007504
AU995   AU        0.469690    0.149157    0.328390     0.007504
AU996   AU        0.469729    0.182552    0.291996     0.007504
PT997   PT        0.500552    0.148603    0.292683     0.004505
AU998   AU        0.502085    0.184558    0.326922     0.007504
PT999   PT        0.533551    0.149435    0.328076     0.004505
AU1000   AU        0.534544    0.184038    0.291475     0.007504
AU1001   AU        0.567574    0.149070    0.290690     0.007504
PT1002   PT        0.566770    0.184670    0.328218     0.004505
PT1003   PT        0.600110    0.146398    0.324930     0.004505
PT1004   PT        0.600689    0.182024    0.290966     0.004505
PT1005   PT        0.631419    0.144241    0.291079     0.004505
AU1006   AU        0.632033    0.183825    0.326572     0.007504
PT1007   PT        0.664764    0.147222    0.326584     0.004505
AU1008   AU        0.665601    0.182644    0.289181     0.007504
AU1009   AU        0.734250    0.105411    0.291754     0.007504
AU1010   AU        0.700669    0.181312    0.323852     0.007504
PT1011   PT        0.734967    0.185504    0.288067     0.004505
AU1012   AU        0.105907    0.255978    0.324511     0.007504
AU1013   AU        0.140462    0.220584    0.325769     0.007504
AU1014   AU        0.138835    0.253058    0.287118     0.007504
PT1015   PT        0.171395    0.215863    0.290638     0.004505
AU1016   AU        0.173239    0.253214    0.327862     0.007504
AU1017   AU        0.205845    0.219286    0.327120     0.007504
PT1018   PT        0.205549    0.252075    0.292981     0.004505
AU1019   AU        0.237638    0.219050    0.290581     0.007504
PT1020   PT        0.239176    0.255079    0.326240     0.004505
AU1021   AU        0.271118    0.218824    0.326360     0.007504
PT1022   PT        0.272785    0.253920    0.290734     0.004505
PT1023   PT        0.304705    0.217975    0.290296     0.004505
AU1024   AU        0.304179    0.253861    0.326500     0.007504
PT1025   PT        0.335821    0.221446    0.325885     0.004505
PT1026   PT        0.337177    0.252605    0.290920     0.004505
AU1027   AU        0.371546    0.218918    0.293568     0.007504
PT1028   PT        0.369175    0.254739    0.327105     0.004505
AU1029   AU        0.400912    0.219879    0.327173     0.007504
PT1030   PT        0.402656    0.254123    0.290594     0.004505
PT1031   PT        0.435200    0.220184    0.292183     0.004505
PT1032   PT        0.436360    0.254838    0.326922     0.004505
PT1033   PT        0.469432    0.218755    0.327749     0.004505
PT1034   PT        0.467952    0.253232    0.291371     0.004505
PT1035   PT        0.500311    0.219791    0.292538     0.004505
AU1036   AU        0.501071    0.254183    0.326340     0.007504
PT1037   PT        0.532475    0.220116    0.328636     0.004505
PT1038   PT        0.533121    0.253370    0.293271     0.004505
PT1039   PT        0.566301    0.220201    0.290777     0.004505
PT1040   PT        0.566488    0.254182    0.327600     0.004505
AU1041   AU        0.598888    0.219581    0.325822     0.007504
AU1042   AU        0.598621    0.255063    0.290942     0.007504
AU1043   AU        0.630620    0.219088    0.292375     0.007504
AU1044   AU        0.630961    0.254852    0.323652     0.007504
PT1045   PT        0.665789    0.218446    0.326306     0.004505
AU1046   AU        0.665156    0.252410    0.292462     0.007504
AU1047   AU        0.698469    0.218459    0.290197     0.007504
AU1048   AU        0.700901    0.253892    0.326879     0.007504
AU1049   AU        0.731542    0.217669    0.324725     0.007504
AU1050   AU        0.735192    0.253962    0.289160     0.007504
AU1051   AU        0.764082    0.256709    0.328283     0.007504
PT1052   PT        0.072759    0.289115    0.325838     0.004505
PT1053   PT        0.070950    0.326371    0.289687     0.004505
PT1054   PT        0.104871    0.290324    0.290074     0.004505
AU1055   AU        0.107154    0.324484    0.325109     0.007504
PT1056   PT        0.141076    0.287802    0.325979     0.004505
AU1057   AU        0.140531    0.325769    0.290751     0.007504
PT1058   PT        0.174208    0.290571    0.291275     0.004505
AU1059   AU        0.173419    0.324827    0.326592     0.007504
PT1060   PT        0.205378    0.289340    0.327351     0.004505
PT1061   PT        0.206758    0.323690    0.290260     0.004505
PT1062   PT        0.239163    0.288493    0.290925     0.004505
AU1063   AU        0.239585    0.323271    0.326593     0.007504
PT1064   PT        0.272421    0.289711    0.326225     0.004505
PT1065   PT        0.271103    0.324613    0.291760     0.004505
PT1066   PT        0.306348    0.289139    0.290798     0.004505
PT1067   PT        0.304305    0.325501    0.325996     0.004505
AU1068   AU        0.336801    0.288342    0.326598     0.007504
PT1069   PT        0.338152    0.324660    0.291550     0.004505
PT1070   PT        0.370383    0.288042    0.289512     0.004505
AU1071   AU        0.371026    0.325524    0.325342     0.007504
PT1072   PT        0.402534    0.288615    0.326728     0.004505
AU1073   AU        0.402146    0.322692    0.291345     0.007504
PT1074   PT        0.434295    0.289883    0.291055     0.004505
PT1075   PT        0.434583    0.324242    0.326931     0.004505
AU1076   AU        0.468005    0.287989    0.327632     0.007504
AU1077   AU        0.467110    0.324301    0.291652     0.007504
PT1078   PT        0.500392    0.286794    0.290666     0.004505
PT1079   PT        0.500696    0.324351    0.325492     0.004505
PT1080   PT        0.535018    0.287642    0.326251     0.004505
PT1081   PT        0.531908    0.322669    0.291511     0.004505
PT1082   PT        0.566363    0.290353    0.289761     0.004505
AU1083   AU        0.564621    0.323535    0.326277     0.007504
AU1084   AU        0.599855    0.288609    0.326684     0.007504
AU1085   AU        0.598433    0.324107    0.288903     0.007504
AU1086   AU        0.631368    0.286214    0.288368     0.007504
PT1087   PT        0.633826    0.322089    0.323504     0.004505
PT1088   PT        0.667097    0.286846    0.324912     0.004505
PT1089   PT        0.666035    0.322648    0.290077     0.004505
AU1090   AU        0.699892    0.288356    0.290877     0.007504
AU1091   AU        0.696699    0.321699    0.326278     0.007504
AU1092   AU        0.731333    0.289340    0.325574     0.007504
AU1093   AU        0.733200    0.323199    0.289760     0.007504
PT1094   PT        0.768092    0.288927    0.285995     0.004505
PT1095   PT        0.766756    0.322895    0.323993     0.004505
AU1096   AU        0.799251    0.287939    0.325787     0.007504
AU1097   AU        0.800536    0.323761    0.291441     0.007504
AU1098   AU        0.074407    0.358368    0.326520     0.007504
PT1099   PT        0.070537    0.394659    0.292509     0.004505
AU1100   AU        0.104016    0.359530    0.287443     0.007504
AU1101   AU        0.108323    0.392721    0.324832     0.007504
AU1102   AU        0.140846    0.361790    0.326521     0.007504
AU1103   AU        0.138930    0.391848    0.291201     0.007504
PT1104   PT        0.174247    0.358621    0.291527     0.004505
AU1105   AU        0.174024    0.393607    0.324820     0.007504
AU1106   AU        0.205670    0.358704    0.327062     0.007504
PT1107   PT        0.207100    0.393420    0.289816     0.004505
PT1108   PT        0.237226    0.358858    0.291948     0.004505
AU1109   AU        0.239035    0.395110    0.324537     0.007504
PT1110   PT        0.271490    0.359904    0.326697     0.004505
AU1111   AU        0.271160    0.394312    0.289706     0.007504
PT1112   PT        0.304017    0.360589    0.290715     0.004505
PT1113   PT        0.303991    0.396466    0.326424     0.004505
AU1114   AU        0.336446    0.359795    0.328222     0.007504
PT1115   PT        0.337489    0.393744    0.291809     0.004505
PT1116   PT        0.369003    0.359200    0.293297     0.004505
AU1117   AU        0.369368    0.395426    0.326233     0.007504
PT1118   PT        0.403656    0.359865    0.325392     0.004505
PT1119   PT        0.401658    0.394319    0.291084     0.004505
PT1120   PT        0.434505    0.361632    0.291193     0.004505
PT1121   PT        0.435062    0.395935    0.327035     0.004505
AU1122   AU        0.468792    0.359141    0.326593     0.007504
AU1123   AU        0.467234    0.392905    0.292508     0.007504
AU1124   AU        0.500565    0.357700    0.291041     0.007504
AU1125   AU        0.499902    0.394482    0.326314     0.007504
PT1126   PT        0.533995    0.359787    0.326813     0.004505
PT1127   PT        0.532892    0.395237    0.291009     0.004505
AU1128   AU        0.566348    0.358988    0.289935     0.007504
PT1129   PT        0.565570    0.395942    0.327069     0.004505
PT1130   PT        0.599217    0.357858    0.328674     0.004505
PT1131   PT        0.600246    0.395749    0.291844     0.004505
PT1132   PT        0.633156    0.359868    0.289314     0.004505
PT1133   PT        0.630783    0.395495    0.328833     0.004505
AU1134   AU        0.663928    0.358769    0.326829     0.007504
PT1135   PT        0.665508    0.396939    0.292756     0.004505
PT1136   PT        0.697139    0.359488    0.289288     0.004505
PT1137   PT        0.697923    0.395473    0.327549     0.004505
PT1138   PT        0.729019    0.360755    0.326483     0.004505
PT1139   PT        0.732675    0.394853    0.289686     0.004505
PT1140   PT        0.768589    0.359992    0.286959     0.004505
AU1141   AU        0.766367    0.392895    0.324162     0.007504
AU1142   AU        0.801546    0.360487    0.322589     0.007504
PT1143   PT        0.801737    0.398618    0.289197     0.004505
AU1144   AU        0.072969    0.430835    0.325680     0.007504
AU1145   AU        0.072964    0.467224    0.288416     0.007504
PT1146   PT        0.106626    0.430194    0.292544     0.004505
AU1147   AU        0.109596    0.464830    0.326989     0.007504
AU1148   AU        0.140978    0.428770    0.327451     0.007504
AU1149   AU        0.140957    0.464296    0.292134     0.007504
PT1150   PT        0.173158    0.429470    0.291537     0.004505
AU1151   AU        0.173668    0.463070    0.325548     0.007504
AU1152   AU        0.204859    0.427469    0.326201     0.007504
PT1153   PT        0.205157    0.462706    0.291938     0.004505
PT1154   PT        0.238446    0.429985    0.291610     0.004505
PT1155   PT        0.239269    0.465779    0.327210     0.004505
PT1156   PT        0.271128    0.427902    0.327726     0.004505
PT1157   PT        0.272135    0.464817    0.291195     0.004505
AU1158   AU        0.304662    0.428686    0.290230     0.007504
AU1159   AU        0.304806    0.464877    0.326787     0.007504
PT1160   PT        0.336698    0.429662    0.324419     0.004505
PT1161   PT        0.336906    0.464312    0.292662     0.004505
AU1162   AU        0.368515    0.429815    0.290548     0.007504
PT1163   PT        0.369203    0.465732    0.325602     0.004505
PT1164   PT        0.402416    0.431632    0.325981     0.004505
PT1165   PT        0.402795    0.465173    0.290500     0.004505
AU1166   AU        0.434057    0.428448    0.290007     0.007504
PT1167   PT        0.435985    0.465848    0.325272     0.004505
AU1168   AU        0.468235    0.430233    0.325524     0.007504
AU1169   AU        0.468725    0.465483    0.289945     0.007504
PT1170   PT        0.501931    0.429916    0.293177     0.004505
PT1171   PT        0.501294    0.464846    0.327345     0.004505
PT1172   PT        0.534461    0.430605    0.325481     0.004505
PT1173   PT        0.533160    0.466322    0.290998     0.004505
PT1174   PT        0.565918    0.430373    0.288996     0.004505
AU1175   AU        0.565524    0.465108    0.325808     0.007504
PT1176   PT        0.600272    0.430851    0.327038     0.004505
PT1177   PT        0.598939    0.464086    0.291314     0.004505
PT1178   PT        0.631900    0.429059    0.290799     0.004505
AU1179   AU        0.631608    0.464473    0.326013     0.007504
AU1180   AU        0.664197    0.429654    0.327769     0.007504
AU1181   AU        0.663919    0.465535    0.292092     0.007504
AU1182   AU        0.697774    0.431872    0.292576     0.007504
PT1183   PT        0.697688    0.466141    0.327383     0.004505
AU1184   AU        0.732751    0.431582    0.325567     0.007504
AU1185   AU        0.731313    0.464880    0.288990     0.007504
AU1186   AU        0.766158    0.430398    0.286616     0.007504
AU1187   AU        0.765869    0.464991    0.321839     0.007504
AU1188   AU        0.800653    0.430238    0.323413     0.007504
PT1189   PT        0.802527    0.462840    0.287208     0.004505
AU1190   AU        0.073897    0.496405    0.326138     0.007504
PT1191   PT        0.070972    0.535409    0.288217     0.004505
PT1192   PT        0.108086    0.499163    0.289482     0.004505
AU1193   AU        0.103907    0.534491    0.327003     0.007504
PT1194   PT        0.141468    0.499507    0.325988     0.004505
AU1195   AU        0.140928    0.532175    0.291745     0.007504
AU1196   AU        0.174456    0.498411    0.291394     0.007504
AU1197   AU        0.172837    0.534745    0.327224     0.007504
AU1198   AU        0.206360    0.499939    0.325531     0.007504
PT1199   PT        0.205146    0.534109    0.290891     0.004505
AU1200   AU        0.238940    0.499962    0.291396     0.007504
PT1201   PT        0.237656    0.533548    0.327249     0.004505
PT1202   PT        0.271961    0.498926    0.326041     0.004505
PT1203   PT        0.272126    0.533428    0.289562     0.004505
PT1204   PT        0.304865    0.500225    0.290501     0.004505
PT1205   PT        0.303227    0.534129    0.326270     0.004505
PT1206   PT        0.337114    0.500862    0.326362     0.004505
PT1207   PT        0.336854    0.534244    0.291360     0.004505
AU1208   AU        0.369703    0.500932    0.290453     0.007504
PT1209   PT        0.370318    0.536008    0.327033     0.004505
PT1210   PT        0.400617    0.499454    0.327466     0.004505
PT1211   PT        0.402311    0.535801    0.290982     0.004505
AU1212   AU        0.435460    0.501856    0.290934     0.007504
PT1213   PT        0.433770    0.535891    0.327120     0.004505
PT1214   PT        0.468647    0.499474    0.325952     0.004505
PT1215   PT        0.467142    0.536209    0.292143     0.004505
PT1216   PT        0.501335    0.497957    0.291629     0.004505
PT1217   PT        0.502022    0.533857    0.326822     0.004505
PT1218   PT        0.535223    0.500208    0.327037     0.004505
PT1219   PT        0.534111    0.534290    0.293023     0.004505
AU1220   AU        0.566619    0.501119    0.290837     0.007504
PT1221   PT        0.566669    0.535018    0.328660     0.004505
AU1222   AU        0.599064    0.500240    0.326994     0.007504
AU1223   AU        0.599487    0.535124    0.289716     0.007504
PT1224   PT        0.631616    0.500078    0.292449     0.004505
AU1225   AU        0.631754    0.536327    0.328467     0.007504
PT1226   PT        0.663360    0.499849    0.326679     0.004505
PT1227   PT        0.664181    0.533891    0.291533     0.004505
AU1228   AU        0.698008    0.499783    0.291837     0.007504
PT1229   PT        0.696933    0.533032    0.325971     0.004505
AU1230   AU        0.731691    0.500751    0.324734     0.007504
AU1231   AU        0.732527    0.534072    0.289531     0.007504
AU1232   AU        0.767143    0.499865    0.289020     0.007504
AU1233   AU        0.766345    0.537176    0.321780     0.007504
AU1234   AU        0.798719    0.501296    0.322402     0.007504
PT1235   PT        0.800171    0.537526    0.287155     0.004505
AU1236   AU        0.071146    0.569038    0.326083     0.007504
AU1237   AU        0.105999    0.568985    0.292180     0.007504
AU1238   AU        0.104137    0.605497    0.328537     0.007504
AU1239   AU        0.138089    0.572509    0.326553     0.007504
AU1240   AU        0.138947    0.606084    0.289893     0.007504
PT1241   PT        0.172523    0.569493    0.290942     0.004505
AU1242   AU        0.172030    0.607271    0.327192     0.007504
AU1243   AU        0.206760    0.569275    0.326681     0.007504
PT1244   PT        0.205775    0.607619    0.288650     0.004505
AU1245   AU        0.237823    0.570454    0.289368     0.007504
AU1246   AU        0.239251    0.605746    0.325188     0.007504
AU1247   AU        0.272028    0.570000    0.326681     0.007504
PT1248   PT        0.271807    0.603909    0.290114     0.004505
PT1249   PT        0.304813    0.569312    0.292599     0.004505
AU1250   AU        0.305890    0.606109    0.324611     0.007504
PT1251   PT        0.337431    0.571459    0.328388     0.004505
PT1252   PT        0.338249    0.605715    0.292274     0.004505
AU1253   AU        0.368914    0.569152    0.291380     0.007504
PT1254   PT        0.370328    0.605707    0.326772     0.004505
PT1255   PT        0.401733    0.571053    0.326431     0.004505
PT1256   PT        0.402958    0.607888    0.291789     0.004505
PT1257   PT        0.434144    0.571783    0.292217     0.004505
PT1258   PT        0.435363    0.606386    0.326206     0.004505
AU1259   AU        0.468094    0.572266    0.326935     0.007504
PT1260   PT        0.466979    0.608690    0.291333     0.004505
PT1261   PT        0.498857    0.572119    0.291647     0.004505
PT1262   PT        0.501826    0.605755    0.325052     0.004505
AU1263   AU        0.532661    0.571300    0.324163     0.007504
PT1264   PT        0.534657    0.604957    0.290878     0.004505
AU1265   AU        0.567184    0.570337    0.292663     0.007504
AU1266   AU        0.565269    0.604149    0.326014     0.007504
AU1267   AU        0.598957    0.570176    0.327817     0.007504
PT1268   PT        0.599717    0.604414    0.292219     0.004505
AU1269   AU        0.633618    0.571061    0.291729     0.007504
AU1270   AU        0.633116    0.606648    0.326022     0.007504
AU1271   AU        0.666978    0.571124    0.325230     0.007504
AU1272   AU        0.667773    0.605161    0.288652     0.007504
AU1273   AU        0.698225    0.567401    0.290262     0.007504
AU1274   AU        0.699121    0.606486    0.324996     0.007504
PT1275   PT        0.732827    0.571051    0.322904     0.004505
AU1276   AU        0.733700    0.605484    0.288658     0.007504
PT1277   PT        0.767199    0.572370    0.288082     0.004505
AU1278   AU        0.769862    0.606486    0.326566     0.007504
AU1279   AU        0.802131    0.571744    0.325838     0.007504
AU1280   AU        0.136767    0.642786    0.328117     0.007504
AU1281   AU        0.136491    0.677963    0.293040     0.007504
PT1282   PT        0.170173    0.643031    0.291316     0.004505
PT1283   PT        0.171560    0.678811    0.328210     0.004505
AU1284   AU        0.204648    0.641311    0.324555     0.007504
AU1285   AU        0.204845    0.681015    0.290702     0.007504
AU1286   AU        0.237821    0.640526    0.292556     0.007504
PT1287   PT        0.238430    0.676476    0.326377     0.004505
AU1288   AU        0.271073    0.641970    0.325950     0.007504
AU1289   AU        0.272086    0.676481    0.290827     0.007504
AU1290   AU        0.302915    0.639986    0.289548     0.007504
PT1291   PT        0.305943    0.677296    0.326356     0.004505
PT1292   PT        0.336581    0.640542    0.325517     0.004505
PT1293   PT        0.338343    0.675691    0.292260     0.004505
PT1294   PT        0.369673    0.641444    0.288897     0.004505
PT1295   PT        0.370243    0.676722    0.327335     0.004505
AU1296   AU        0.401423    0.642218    0.325534     0.007504
PT1297   PT        0.402254    0.677084    0.290871     0.004505
AU1298   AU        0.435935    0.643245    0.289978     0.007504
AU1299   AU        0.436324    0.675176    0.326250     0.007504
AU1300   AU        0.468958    0.639597    0.327150     0.007504
PT1301   PT        0.470003    0.675274    0.292048     0.004505
PT1302   PT        0.502059    0.640452    0.291747     0.004505
PT1303   PT        0.502146    0.674525    0.326293     0.004505
AU1304   AU        0.536356    0.641089    0.324273     0.007504
PT1305   PT        0.535814    0.677148    0.292142     0.004505
PT1306   PT        0.565887    0.639508    0.293330     0.004505
PT1307   PT        0.567365    0.676580    0.327090     0.004505
PT1308   PT        0.599303    0.638877    0.325716     0.004505
AU1309   AU        0.599045    0.675603    0.290329     0.007504
PT1310   PT        0.633318    0.640469    0.290605     0.004505
PT1311   PT        0.630438    0.674563    0.327218     0.004505
PT1312   PT        0.665813    0.639245    0.325906     0.004505
PT1313   PT        0.664745    0.679634    0.288489     0.004505
AU1314   AU        0.701041    0.642695    0.289818     0.007504
AU1315   AU        0.698121    0.676325    0.325823     0.007504
PT1316   PT        0.733566    0.640237    0.322941     0.004505
PT1317   PT        0.733873    0.678140    0.288421     0.004505
AU1318   AU        0.170417    0.711956    0.290694     0.007504
AU1319   AU        0.204125    0.713001    0.326385     0.007504
PT1320   PT        0.205359    0.750631    0.287312     0.004505
AU1321   AU        0.235156    0.713330    0.291578     0.007504
AU1322   AU        0.235895    0.747815    0.326023     0.007504
AU1323   AU        0.269992    0.711087    0.324894     0.007504
PT1324   PT        0.268134    0.747461    0.291310     0.004505
AU1325   AU        0.305063    0.712241    0.290749     0.007504
AU1326   AU        0.303523    0.746012    0.326887     0.007504
PT1327   PT        0.337429    0.711470    0.326031     0.004505
AU1328   AU        0.337142    0.746812    0.288448     0.007504
PT1329   PT        0.369962    0.712335    0.292452     0.004505
PT1330   PT        0.367907    0.748743    0.322058     0.004505
PT1331   PT        0.403209    0.712717    0.326112     0.004505
AU1332   AU        0.403856    0.746030    0.290509     0.007504
PT1333   PT        0.437411    0.709862    0.292329     0.004505
AU1334   AU        0.435091    0.746061    0.325538     0.007504
PT1335   PT        0.468867    0.710390    0.327998     0.004505
PT1336   PT        0.467723    0.745256    0.291735     0.004505
AU1337   AU        0.501610    0.711257    0.292194     0.007504
PT1338   PT        0.500742    0.746017    0.329581     0.004505
AU1339   AU        0.533617    0.711408    0.327838     0.007504
AU1340   AU        0.533420    0.745438    0.292840     0.007504
AU1341   AU        0.568537    0.712932    0.294191     0.007504
AU1342   AU        0.568627    0.748125    0.327688     0.007504
PT1343   PT        0.600513    0.713276    0.327784     0.004505
AU1344   AU        0.601324    0.753670    0.291851     0.007504
PT1345   PT        0.631716    0.716378    0.290585     0.004505
PT1346   PT        0.634382    0.747377    0.326548     0.004505
PT1347   PT        0.664346    0.712831    0.327643     0.004505
PT1348   PT        0.668797    0.749482    0.289564     0.004505
AU1349   AU        0.698903    0.710948    0.292312     0.007504
AU1350   AU        0.270169    0.786028    0.328479     0.007504
AU1351   AU        0.303284    0.779297    0.291717     0.007504
AU1352   AU        0.306685    0.819911    0.321893     0.007504
PT1353   PT        0.335636    0.781048    0.324822     0.004505
AU1354   AU        0.334335    0.857148    0.328722     0.007504
AU1355   AU        0.370743    0.784465    0.288896     0.007504
AU1356   AU        0.369883    0.815133    0.325501     0.007504
AU1357   AU        0.402699    0.781457    0.326620     0.007504
PT1358   PT        0.406537    0.816814    0.291101     0.004505
AU1359   AU        0.437327    0.781785    0.291138     0.007504
PT1360   PT        0.436640    0.816973    0.326983     0.004505
AU1361   AU        0.468562    0.779527    0.327870     0.007504
AU1362   AU        0.469682    0.818742    0.290908     0.007504
PT1363   PT        0.503483    0.783460    0.293172     0.004505
PT1364   PT        0.500047    0.818265    0.327134     0.004505
AU1365   AU        0.534686    0.785030    0.329836     0.007504
AU1366   AU        0.533026    0.820884    0.292935     0.007504
AU1367   AU        0.566132    0.784330    0.289008     0.007504
AU1368   AU        0.567624    0.818213    0.326133     0.007504
PT1369   PT        0.601501    0.785628    0.328528     0.004505
PT1370   PT        0.269137    0.037991    0.357308     0.004505
AU1371   AU        0.304393    0.039285    0.395773     0.007504
PT1372   PT        0.336141    0.036802    0.359568     0.004505
PT1373   PT        0.369653    0.045459    0.397184     0.004505
AU1374   AU        0.401166    0.006461    0.394033     0.007504
PT1375   PT        0.402408    0.044472    0.362374     0.004505
PT1376   PT        0.435813    0.008365    0.363600     0.004505
AU1377   AU        0.435496    0.043942    0.396191     0.007504
AU1378   AU        0.469592    0.003594    0.398211     0.007504
AU1379   AU        0.466876    0.044054    0.362387     0.007504
AU1380   AU        0.501464    0.042790    0.394507     0.007504
PT1381   PT        0.530749    0.040658    0.359920     0.004505
AU1382   AU        0.566418    0.040992    0.394496     0.007504
PT1383   PT        0.601235    0.038793    0.359957     0.004505
AU1384   AU        0.172617    0.106640    0.393940     0.007504
AU1385   AU        0.206557    0.070141    0.393434     0.007504
AU1386   AU        0.207641    0.112139    0.362486     0.007504
PT1387   PT        0.239019    0.078869    0.360697     0.004505
AU1388   AU        0.237957    0.112667    0.396950     0.007504
PT1389   PT        0.271593    0.079141    0.395006     0.004505
PT1390   PT        0.271970    0.115642    0.362108     0.004505
AU1391   AU        0.304694    0.075171    0.362806     0.007504
PT1392   PT        0.304931    0.111831    0.397651     0.004505
AU1393   AU        0.335727    0.075326    0.397132     0.007504
AU1394   AU        0.336162    0.113628    0.363915     0.007504
PT1395   PT        0.367480    0.079736    0.363851     0.004505
PT1396   PT        0.369491    0.115611    0.398179     0.004505
PT1397   PT        0.402521    0.080065    0.397785     0.004505
PT1398   PT        0.401298    0.114325    0.362135     0.004505
PT1399   PT        0.435651    0.079783    0.362985     0.004505
PT1400   PT        0.435921    0.115852    0.398529     0.004505
PT1401   PT        0.466811    0.079364    0.398573     0.004505
PT1402   PT        0.469060    0.112674    0.363163     0.004505
PT1403   PT        0.500696    0.078726    0.361003     0.004505
AU1404   AU        0.499670    0.114336    0.398713     0.007504
PT1405   PT        0.533113    0.078436    0.397332     0.004505
AU1406   AU        0.533123    0.112517    0.361826     0.007504
PT1407   PT        0.565658    0.075689    0.361427     0.004505
AU1408   AU        0.568210    0.112128    0.395106     0.007504
PT1409   PT        0.602516    0.073627    0.393535     0.004505
AU1410   AU        0.602630    0.109502    0.359894     0.007504
PT1411   PT        0.635542    0.072702    0.360046     0.004505
AU1412   AU        0.633106    0.109959    0.398097     0.007504
PT1413   PT        0.670422    0.074019    0.394953     0.004505
AU1414   AU        0.665136    0.110825    0.360377     0.007504
PT1415   PT        0.698188    0.113728    0.395317     0.004505
PT1416   PT        0.102972    0.181420    0.394094     0.004505
PT1417   PT        0.139814    0.147712    0.395853     0.004505
PT1418   PT        0.139827    0.185290    0.360675     0.004505
AU1419   AU        0.172366    0.148921    0.360998     0.007504
PT1420   PT        0.171271    0.181838    0.398554     0.004505
AU1421   AU        0.204263    0.149612    0.397116     0.007504
PT1422   PT        0.205346    0.183765    0.362108     0.004505
PT1423   PT        0.239390    0.147946    0.360109     0.004505
AU1424   AU        0.239150    0.186392    0.397354     0.007504
AU1425   AU        0.270907    0.148063    0.396254     0.007504
PT1426   PT        0.271572    0.184287    0.361074     0.004505
PT1427   PT        0.304087    0.150294    0.362542     0.004505
AU1428   AU        0.304160    0.185579    0.395838     0.007504
PT1429   PT        0.336373    0.150068    0.395976     0.004505
AU1430   AU        0.337109    0.185192    0.359788     0.007504
PT1431   PT        0.370597    0.150289    0.362895     0.004505
PT1432   PT        0.368846    0.184083    0.396854     0.004505
PT1433   PT        0.403779    0.149858    0.396777     0.004505
AU1434   AU        0.402184    0.184632    0.362509     0.007504
PT1435   PT        0.435537    0.146526    0.362645     0.004505
AU1436   AU        0.433844    0.184289    0.397476     0.007504
PT1437   PT        0.466942    0.150305    0.397463     0.004505
PT1438   PT        0.468686    0.183780    0.363656     0.004505
AU1439   AU        0.501245    0.147504    0.362227     0.007504
PT1440   PT        0.500506    0.183829    0.396922     0.004505
AU1441   AU        0.535196    0.146410    0.398499     0.007504
AU1442   AU        0.532737    0.183354    0.362782     0.007504
AU1443   AU        0.567870    0.148536    0.364371     0.007504
AU1444   AU        0.566892    0.183591    0.399471     0.007504
PT1445   PT        0.602158    0.146402    0.396596     0.004505
AU1446   AU        0.599348    0.181891    0.362191     0.007504
AU1447   AU        0.631657    0.146403    0.359364     0.007504
AU1448   AU        0.633676    0.182532    0.397997     0.007504
AU1449   AU        0.664444    0.145391    0.397631     0.007504
AU1450   AU        0.664695    0.182727    0.363115     0.007504
AU1451   AU        0.700292    0.144176    0.359278     0.007504
AU1452   AU        0.701789    0.180154    0.394212     0.007504
PT1453   PT        0.735969    0.147102    0.395687     0.004505
PT1454   PT        0.735912    0.181435    0.357494     0.004505
AU1455   AU        0.765027    0.185731    0.393600     0.007504
PT1456   PT        0.073392    0.252334    0.360244     0.004505
PT1457   PT        0.107927    0.219362    0.361127     0.004505
PT1458   PT        0.106028    0.255411    0.397679     0.004505
PT1459   PT        0.136213    0.216601    0.397152     0.004505
PT1460   PT        0.140568    0.255931    0.361420     0.004505
AU1461   AU        0.172867    0.218889    0.360691     0.007504
AU1462   AU        0.169518    0.253546    0.396288     0.007504
PT1463   PT        0.203771    0.220815    0.394310     0.004505
PT1464   PT        0.205444    0.254716    0.360258     0.004505
AU1465   AU        0.238365    0.219011    0.361584     0.007504
PT1466   PT        0.239284    0.254758    0.396814     0.004505
AU1467   AU        0.271764    0.219536    0.395822     0.007504
PT1468   PT        0.271629    0.254425    0.361463     0.004505
AU1469   AU        0.304243    0.219121    0.361542     0.007504
PT1470   PT        0.303950    0.253722    0.394678     0.004505
PT1471   PT        0.336545    0.219156    0.397089     0.004505
PT1472   PT        0.337101    0.255370    0.362412     0.004505
AU1473   AU        0.370310    0.218899    0.359874     0.007504
PT1474   PT        0.370714    0.254489    0.395817     0.004505
PT1475   PT        0.402164    0.220279    0.398048     0.004505
PT1476   PT        0.402373    0.253393    0.361608     0.004505
AU1477   AU        0.435915    0.219823    0.361625     0.007504
PT1478   PT        0.434891    0.253891    0.395677     0.004505
PT1479   PT        0.467450    0.218937    0.397174     0.004505
PT1480   PT        0.469192    0.253424    0.364358     0.004505
PT1481   PT        0.500080    0.218004    0.362534     0.004505
AU1482   AU        0.501753    0.253265    0.397841     0.007504
PT1483   PT        0.533911    0.218889    0.397004     0.004505
AU1484   AU        0.534030    0.255998    0.363293     0.007504
AU1485   AU        0.565038    0.219412    0.362970     0.007504
PT1486   PT        0.567184    0.252192    0.396077     0.004505
PT1487   PT        0.599664    0.217747    0.396906     0.004505
AU1488   AU        0.597998    0.253541    0.361321     0.007504
AU1489   AU        0.630850    0.219889    0.360870     0.007504
PT1490   PT        0.630942    0.253446    0.396756     0.004505
PT1491   PT        0.664065    0.219918    0.397907     0.004505
AU1492   AU        0.666269    0.253895    0.360064     0.007504
AU1493   AU        0.697701    0.217245    0.361051     0.007504
AU1494   AU        0.699129    0.254846    0.396475     0.007504
PT1495   PT        0.734515    0.218465    0.393725     0.004505
PT1496   PT        0.732576    0.251558    0.361265     0.004505
PT1497   PT        0.769652    0.219602    0.357555     0.004505
PT1498   PT        0.767667    0.252236    0.395236     0.004505
PT1499   PT        0.802075    0.254453    0.358707     0.004505
AU1500   AU        0.074163    0.289614    0.394596     0.007504
AU1501   AU        0.074345    0.325616    0.359992     0.007504
AU1502   AU        0.105656    0.288780    0.361184     0.007504
AU1503   AU        0.107005    0.324605    0.394950     0.007504
PT1504   PT        0.141170    0.291449    0.397160     0.004505
PT1505   PT        0.139919    0.324155    0.361857     0.004505
PT1506   PT        0.172166    0.287844    0.362107     0.004505
PT1507   PT        0.173851    0.326201    0.394840     0.004505
PT1508   PT        0.205924    0.289173    0.396430     0.004505
PT1509   PT        0.206695    0.324531    0.361449     0.004505
PT1510   PT        0.238513    0.289061    0.363188     0.004505
PT1511   PT        0.238073    0.323723    0.396088     0.004505
PT1512   PT        0.271888    0.291063    0.397266     0.004505
PT1513   PT        0.272082    0.324104    0.361480     0.004505
PT1514   PT        0.305351    0.289545    0.360628     0.004505
PT1515   PT        0.304270    0.322856    0.395418     0.004505
PT1516   PT        0.336467    0.289979    0.397603     0.004505
PT1517   PT        0.337046    0.324273    0.360453     0.004505
PT1518   PT        0.369153    0.289128    0.361542     0.004505
PT1519   PT        0.369872    0.324006    0.395670     0.004505
PT1520   PT        0.401272    0.289956    0.396391     0.004505
PT1521   PT        0.403119    0.324321    0.360474     0.004505
PT1522   PT        0.436018    0.289895    0.362910     0.004505
PT1523   PT        0.433726    0.323757    0.396980     0.004505
AU1524   AU        0.468036    0.289240    0.396418     0.007504
PT1525   PT        0.467367    0.325943    0.361093     0.004505
AU1526   AU        0.498995    0.290221    0.361843     0.007504
AU1527   AU        0.501588    0.323472    0.398245     0.007504
PT1528   PT        0.533245    0.288516    0.399011     0.004505
PT1529   PT        0.531957    0.323072    0.363228     0.004505
PT1530   PT        0.566162    0.290128    0.362229     0.004505
PT1531   PT        0.566378    0.325250    0.396797     0.004505
PT1532   PT        0.597977    0.289031    0.396468     0.004505
PT1533   PT        0.598284    0.323637    0.361651     0.004505
AU1534   AU        0.631645    0.291089    0.359940     0.007504
AU1535   AU        0.630965    0.324500    0.396297     0.007504
PT1536   PT        0.663761    0.287381    0.396054     0.004505
AU1537   AU        0.663295    0.323407    0.362656     0.007504
PT1538   PT        0.698294    0.287329    0.361933     0.004505
PT1539   PT        0.697550    0.321566    0.396612     0.004505
AU1540   AU        0.734035    0.288406    0.394158     0.007504
PT1541   PT        0.731370    0.322323    0.361541     0.004505
AU1542   AU        0.765203    0.286695    0.358436     0.007504
AU1543   AU        0.766965    0.325438    0.392659     0.007504
AU1544   AU        0.797853    0.289161    0.392836     0.007504
AU1545   AU        0.801251    0.325755    0.360854     0.007504
AU1546   AU        0.037824    0.392124    0.395568     0.007504
AU1547   AU        0.073964    0.359241    0.395850     0.007504
AU1548   AU        0.071665    0.392497    0.360762     0.007504
AU1549   AU        0.106385    0.361941    0.360913     0.007504
PT1550   PT        0.108128    0.393671    0.396552     0.004505
PT1551   PT        0.139892    0.359323    0.397190     0.004505
PT1552   PT        0.141408    0.394941    0.361778     0.004505
PT1553   PT        0.172606    0.358771    0.360627     0.004505
PT1554   PT        0.174905    0.394859    0.396336     0.004505
AU1555   AU        0.205885    0.360093    0.396213     0.007504
AU1556   AU        0.205762    0.393699    0.360354     0.007504
AU1557   AU        0.238797    0.359589    0.359965     0.007504
PT1558   PT        0.237994    0.394399    0.395855     0.004505
PT1559   PT        0.270925    0.359266    0.398119     0.004505
PT1560   PT        0.270797    0.393714    0.362475     0.004505
PT1561   PT        0.302155    0.360806    0.362744     0.004505
PT1562   PT        0.303448    0.395774    0.396865     0.004505
PT1563   PT        0.335922    0.358841    0.396284     0.004505
AU1564   AU        0.334845    0.395010    0.360949     0.007504
PT1565   PT        0.370554    0.360464    0.362535     0.004505
PT1566   PT        0.369329    0.394040    0.396186     0.004505
AU1567   AU        0.401953    0.360752    0.394870     0.007504
PT1568   PT        0.403086    0.396042    0.360171     0.004505
PT1569   PT        0.435315    0.360737    0.362837     0.004505
AU1570   AU        0.435200    0.395789    0.397630     0.007504
PT1571   PT        0.469094    0.359427    0.398950     0.004505
PT1572   PT        0.468793    0.394634    0.361162     0.004505
PT1573   PT        0.499842    0.360135    0.361229     0.004505
PT1574   PT        0.501171    0.393961    0.397064     0.004505
AU1575   AU        0.532447    0.360068    0.395788     0.007504
PT1576   PT        0.532961    0.394059    0.361607     0.004505
AU1577   AU        0.566281    0.358478    0.361174     0.007504
AU1578   AU        0.565583    0.394143    0.395745     0.007504
PT1579   PT        0.598514    0.359547    0.396890     0.004505
PT1580   PT        0.598708    0.393666    0.361651     0.004505
AU1581   AU        0.631265    0.358609    0.362497     0.007504
PT1582   PT        0.632075    0.394810    0.397181     0.004505
AU1583   AU        0.665236    0.358516    0.396810     0.007504
AU1584   AU        0.664145    0.393084    0.362315     0.007504
AU1585   AU        0.697250    0.358576    0.363298     0.007504
AU1586   AU        0.697114    0.394584    0.396574     0.007504
AU1587   AU        0.729389    0.360384    0.397740     0.007504
PT1588   PT        0.729458    0.395762    0.359929     0.004505
AU1589   AU        0.765031    0.359082    0.359677     0.007504
PT1590   PT        0.765464    0.395898    0.394759     0.004505
AU1591   AU        0.800887    0.362692    0.395359     0.007504
AU1592   AU        0.801034    0.393621    0.358265     0.007504
PT1593   PT        0.835248    0.397520    0.390833     0.004505
PT1594   PT        0.036589    0.430103    0.358563     0.004505
AU1595   AU        0.038831    0.464269    0.395129     0.007504
AU1596   AU        0.069818    0.427427    0.395953     0.007504
AU1597   AU        0.072199    0.465390    0.361155     0.007504
AU1598   AU        0.106522    0.429302    0.360094     0.007504
PT1599   PT        0.107525    0.464211    0.396360     0.004505
PT1600   PT        0.140966    0.429224    0.397098     0.004505
PT1601   PT        0.141216    0.464986    0.360174     0.004505
PT1602   PT        0.174116    0.429410    0.359950     0.004505
PT1603   PT        0.172547    0.463058    0.394715     0.004505
PT1604   PT        0.206560    0.428647    0.395411     0.004505
PT1605   PT        0.206741    0.463433    0.360598     0.004505
PT1606   PT        0.239167    0.429682    0.359364     0.004505
PT1607   PT        0.238483    0.463323    0.396281     0.004505
PT1608   PT        0.271218    0.428985    0.395967     0.004505
PT1609   PT        0.271213    0.464800    0.360814     0.004505
PT1610   PT        0.303788    0.428926    0.361122     0.004505
PT1611   PT        0.304290    0.463674    0.395080     0.004505
AU1612   AU        0.337297    0.431589    0.396043     0.007504
PT1613   PT        0.336662    0.465409    0.360343     0.004505
PT1614   PT        0.368749    0.428441    0.362050     0.004505
PT1615   PT        0.369248    0.464517    0.396793     0.004505
PT1616   PT        0.401981    0.428718    0.397874     0.004505
PT1617   PT        0.401220    0.464187    0.362557     0.004505
PT1618   PT        0.435384    0.429811    0.361727     0.004505
PT1619   PT        0.434840    0.465346    0.397160     0.004505
AU1620   AU        0.469451    0.430389    0.396467     0.007504
PT1621   PT        0.468036    0.465834    0.361843     0.004505
PT1622   PT        0.500494    0.431126    0.362018     0.004505
PT1623   PT        0.503504    0.465174    0.396070     0.004505
AU1624   AU        0.533663    0.430139    0.396325     0.007504
PT1625   PT        0.533247    0.463614    0.360604     0.004505
PT1626   PT        0.566897    0.429572    0.360253     0.004505
AU1627   AU        0.565294    0.464696    0.397136     0.007504
AU1628   AU        0.597787    0.428431    0.397763     0.007504
AU1629   AU        0.598411    0.462920    0.361452     0.007504
PT1630   PT        0.633807    0.430109    0.360529     0.004505
PT1631   PT        0.630938    0.465163    0.397234     0.004505
AU1632   AU        0.664570    0.431114    0.396660     0.007504
AU1633   AU        0.664310    0.466553    0.361124     0.007504
AU1634   AU        0.697044    0.430545    0.363181     0.007504
AU1635   AU        0.699048    0.464943    0.396801     0.007504
AU1636   AU        0.729822    0.432301    0.395060     0.007504
PT1637   PT        0.732822    0.467367    0.360616     0.004505
AU1638   AU        0.766908    0.428353    0.357561     0.007504
AU1639   AU        0.765578    0.463723    0.393511     0.007504
AU1640   AU        0.802208    0.430887    0.392295     0.007504
AU1641   AU        0.799683    0.465316    0.359550     0.007504
PT1642   PT        0.835460    0.437989    0.356378     0.004505
AU1643   AU        0.833777    0.468060    0.397650     0.007504
AU1644   AU        0.070473    0.498903    0.397411     0.007504
PT1645   PT        0.070552    0.534587    0.359824     0.004505
PT1646   PT        0.108872    0.499580    0.360904     0.004505
AU1647   AU        0.106956    0.534926    0.395185     0.007504
AU1648   AU        0.140892    0.499930    0.396999     0.007504
AU1649   AU        0.140794    0.534545    0.361757     0.007504
PT1650   PT        0.174437    0.497730    0.360176     0.004505
PT1651   PT        0.172429    0.534250    0.395261     0.004505
AU1652   AU        0.207373    0.500723    0.395851     0.007504
PT1653   PT        0.206701    0.533497    0.362788     0.004505
AU1654   AU        0.239120    0.499204    0.361561     0.007504
PT1655   PT        0.239470    0.536656    0.395236     0.004505
PT1656   PT        0.271692    0.499400    0.395232     0.004505
AU1657   AU        0.271328    0.534375    0.361366     0.007504
PT1658   PT        0.304424    0.499576    0.361058     0.004505
AU1659   AU        0.305011    0.535895    0.396381     0.007504
PT1660   PT        0.335364    0.499040    0.396151     0.004505
PT1661   PT        0.337149    0.537487    0.360464     0.004505
AU1662   AU        0.370147    0.499102    0.361218     0.007504
PT1663   PT        0.368636    0.534442    0.396642     0.004505
PT1664   PT        0.402222    0.501091    0.395473     0.004505
PT1665   PT        0.401841    0.533992    0.362000     0.004505
PT1666   PT        0.436033    0.498342    0.360840     0.004505
AU1667   AU        0.434341    0.534888    0.394997     0.007504
PT1668   PT        0.467176    0.500250    0.395604     0.004505
PT1669   PT        0.467193    0.533606    0.360231     0.004505
PT1670   PT        0.503213    0.500845    0.361717     0.004505
AU1671   AU        0.501030    0.533588    0.396561     0.007504
PT1672   PT        0.534159    0.499863    0.396697     0.004505
PT1673   PT        0.534698    0.534527    0.361452     0.004505
PT1674   PT        0.565838    0.500158    0.361803     0.004505
PT1675   PT        0.567191    0.536436    0.395901     0.004505
PT1676   PT        0.599280    0.499043    0.397541     0.004505
PT1677   PT        0.598195    0.534248    0.362138     0.004505
AU1678   AU        0.631784    0.500113    0.360995     0.007504
PT1679   PT        0.630158    0.533540    0.396851     0.004505
PT1680   PT        0.665316    0.498908    0.396840     0.004505
PT1681   PT        0.664556    0.534268    0.361823     0.004505
PT1682   PT        0.697447    0.499505    0.363545     0.004505
AU1683   AU        0.699575    0.536898    0.395714     0.007504
PT1684   PT        0.732853    0.503016    0.396657     0.004505
AU1685   AU        0.732832    0.535230    0.358443     0.007504
AU1686   AU        0.765611    0.500892    0.357934     0.007504
AU1687   AU        0.764178    0.537490    0.394751     0.007504
AU1688   AU        0.796319    0.498794    0.395441     0.007504
PT1689   PT        0.798568    0.535834    0.362788     0.004505
AU1690   AU        0.070740    0.566851    0.394407     0.007504
PT1691   PT        0.066091    0.603122    0.361087     0.004505
PT1692   PT        0.103793    0.569160    0.360661     0.004505
AU1693   AU        0.100376    0.605890    0.394816     0.007504
AU1694   AU        0.138520    0.568454    0.396790     0.007504
AU1695   AU        0.138267    0.606261    0.363590     0.007504
AU1696   AU        0.173780    0.570013    0.360395     0.007504
AU1697   AU        0.172634    0.605422    0.396464     0.007504
PT1698   PT        0.205632    0.571025    0.395261     0.004505
AU1699   AU        0.205404    0.605711    0.359818     0.007504
PT1700   PT        0.238224    0.572132    0.362087     0.004505
AU1701   AU        0.237819    0.606565    0.396967     0.007504
PT1702   PT        0.271505    0.570307    0.397935     0.004505
PT1703   PT        0.271558    0.606625    0.360060     0.004505
PT1704   PT        0.303403    0.569971    0.361791     0.004505
PT1705   PT        0.303930    0.603822    0.395686     0.004505
PT1706   PT        0.337445    0.571556    0.395493     0.004505
PT1707   PT        0.336752    0.605963    0.360692     0.004505
AU1708   AU        0.370797    0.570403    0.362827     0.007504
PT1709   PT        0.370002    0.606638    0.396159     0.004505
PT1710   PT        0.401025    0.569157    0.396551     0.004505
AU1711   AU        0.403118    0.606658    0.361647     0.007504
PT1712   PT        0.434357    0.570509    0.361231     0.004505
AU1713   AU        0.435867    0.605141    0.396811     0.007504
PT1714   PT        0.467281    0.570140    0.394771     0.004505
PT1715   PT        0.468375    0.605908    0.362095     0.004505
PT1716   PT        0.499442    0.570888    0.360679     0.004505
PT1717   PT        0.499871    0.605100    0.397399     0.004505
PT1718   PT        0.533245    0.570406    0.396711     0.004505
AU1719   AU        0.534088    0.605416    0.360235     0.007504
PT1720   PT        0.564884    0.569816    0.360314     0.004505
PT1721   PT        0.564631    0.604574    0.397873     0.004505
PT1722   PT        0.600217    0.570844    0.397699     0.004505
PT1723   PT        0.600680    0.604314    0.361797     0.004505
AU1724   AU        0.632447    0.570359    0.362083     0.007504
PT1725   PT        0.632773    0.605070    0.396754     0.004505
AU1726   AU        0.664744    0.570868    0.396899     0.007504
AU1727   AU        0.664702    0.603641    0.361873     0.007504
AU1728   AU        0.699101    0.569822    0.360004     0.007504
AU1729   AU        0.699408    0.607040    0.396113     0.007504
AU1730   AU        0.727784    0.569903    0.397116     0.007504
PT1731   PT        0.733628    0.603431    0.360504     0.004505
AU1732   AU        0.765449    0.571344    0.360179     0.007504
AU1733   AU        0.768104    0.607170    0.397615     0.007504
AU1734   AU        0.799071    0.572234    0.393492     0.007504
PT1735   PT        0.799224    0.608037    0.363596     0.004505
PT1736   PT        0.101049    0.641721    0.362331     0.004505
AU1737   AU        0.105042    0.680779    0.394881     0.007504
AU1738   AU        0.134641    0.642109    0.396386     0.007504
AU1739   AU        0.136091    0.679486    0.360709     0.007504
PT1740   PT        0.173102    0.643118    0.361489     0.004505
AU1741   AU        0.171747    0.680243    0.396269     0.007504
AU1742   AU        0.205877    0.640998    0.397545     0.007504
AU1743   AU        0.206381    0.676117    0.362657     0.007504
PT1744   PT        0.238122    0.639344    0.361371     0.004505
PT1745   PT        0.237975    0.676836    0.395528     0.004505
AU1746   AU        0.271901    0.639917    0.396970     0.007504
PT1747   PT        0.270256    0.675079    0.361688     0.004505
AU1748   AU        0.304482    0.640778    0.362136     0.007504
PT1749   PT        0.304859    0.674331    0.397391     0.004505
PT1750   PT        0.337788    0.639480    0.397823     0.004505
PT1751   PT        0.338072    0.675414    0.362381     0.004505
PT1752   PT        0.370169    0.639929    0.360027     0.004505
PT1753   PT        0.369982    0.676521    0.396330     0.004505
PT1754   PT        0.402287    0.640338    0.396266     0.004505
PT1755   PT        0.401645    0.676053    0.362821     0.004505
AU1756   AU        0.435705    0.640809    0.362235     0.007504
AU1757   AU        0.436025    0.674728    0.395779     0.007504
AU1758   AU        0.467105    0.638840    0.396342     0.007504
PT1759   PT        0.468866    0.675312    0.362700     0.004505
PT1760   PT        0.502420    0.639851    0.359596     0.004505
AU1761   AU        0.500771    0.673198    0.395818     0.007504
PT1762   PT        0.533805    0.638767    0.396634     0.004505
PT1763   PT        0.535039    0.674253    0.360081     0.004505
AU1764   AU        0.565780    0.639932    0.361794     0.007504
AU1765   AU        0.565123    0.675149    0.396942     0.007504
AU1766   AU        0.599007    0.640543    0.395695     0.007504
AU1767   AU        0.598743    0.674966    0.360974     0.007504
AU1768   AU        0.632641    0.640357    0.361423     0.007504
AU1769   AU        0.629905    0.676555    0.397058     0.007504
AU1770   AU        0.664131    0.638437    0.398034     0.007504
AU1771   AU        0.667374    0.674302    0.362768     0.007504
AU1772   AU        0.698938    0.639627    0.360075     0.007504
PT1773   PT        0.701510    0.675087    0.395006     0.004505
AU1774   AU        0.733579    0.642124    0.397317     0.007504
AU1775   AU        0.734006    0.675806    0.358126     0.007504
AU1776   AU        0.767702    0.643176    0.363936     0.007504
AU1777   AU        0.766931    0.678287    0.396361     0.007504
PT1778   PT        0.137118    0.717734    0.395965     0.004505
PT1779   PT        0.171643    0.715650    0.359758     0.004505
AU1780   AU        0.172660    0.750177    0.393449     0.007504
PT1781   PT        0.206343    0.712710    0.397424     0.004505
PT1782   PT        0.206758    0.746345    0.362462     0.004505
AU1783   AU        0.238391    0.711951    0.358942     0.007504
PT1784   PT        0.240481    0.745433    0.395477     0.004505
PT1785   PT        0.270814    0.710396    0.395689     0.004505
AU1786   AU        0.269788    0.746994    0.358874     0.007504
PT1787   PT        0.304199    0.709658    0.362013     0.004505
PT1788   PT        0.304036    0.744250    0.395701     0.004505
PT1789   PT        0.338057    0.710941    0.397593     0.004505
AU1790   AU        0.336752    0.744719    0.361622     0.007504
AU1791   AU        0.369504    0.712104    0.359242     0.007504
PT1792   PT        0.370737    0.745724    0.396200     0.004505
PT1793   PT        0.403762    0.709061    0.396852     0.004505
PT1794   PT        0.403474    0.747652    0.359053     0.004505
AU1795   AU        0.434408    0.709246    0.360473     0.007504
PT1796   PT        0.435188    0.744968    0.396013     0.004505
PT1797   PT        0.468983    0.710786    0.396801     0.004505
PT1798   PT        0.467986    0.743950    0.361695     0.004505
AU1799   AU        0.501992    0.709292    0.362148     0.007504
PT1800   PT        0.501520    0.745122    0.396182     0.004505
AU1801   AU        0.533348    0.710599    0.397966     0.007504
PT1802   PT        0.535529    0.744824    0.362918     0.004505
AU1803   AU        0.566776    0.710683    0.362508     0.007504
AU1804   AU        0.567253    0.749009    0.396510     0.007504
AU1805   AU        0.600261    0.713292    0.396648     0.007504
PT1806   PT        0.604200    0.748274    0.362530     0.004505
AU1807   AU        0.634021    0.711644    0.363186     0.007504
AU1808   AU        0.634849    0.748947    0.398046     0.007504
AU1809   AU        0.667577    0.710554    0.398131     0.007504
AU1810   AU        0.667953    0.748149    0.363367     0.007504
PT1811   PT        0.696410    0.713629    0.362159     0.004505
AU1812   AU        0.699424    0.750093    0.402230     0.007504
AU1813   AU        0.735276    0.714285    0.394728     0.007504
AU1814   AU        0.206337    0.782553    0.394061     0.007504
PT1815   PT        0.236349    0.783870    0.358526     0.004505
AU1816   AU        0.271242    0.783259    0.392980     0.007504
PT1817   PT        0.234306    0.818951    0.318257     0.004505
AU1818   AU        0.306263    0.783315    0.360930     0.007504
PT1819   PT        0.306122    0.821047    0.396613     0.004505
AU1820   AU        0.337517    0.780671    0.397354     0.007504
AU1821   AU        0.338201    0.816619    0.360689     0.007504
PT1822   PT        0.369549    0.780887    0.362604     0.004505
AU1823   AU        0.371226    0.815568    0.396890     0.007504
AU1824   AU        0.403016    0.780645    0.396784     0.007504
AU1825   AU        0.401809    0.814373    0.361955     0.007504
PT1826   PT        0.436210    0.780897    0.363813     0.004505
AU1827   AU        0.434558    0.818004    0.396062     0.007504
AU1828   AU        0.467722    0.779873    0.395543     0.007504
AU1829   AU        0.468955    0.814360    0.362414     0.007504
AU1830   AU        0.499449    0.780543    0.363351     0.007504
AU1831   AU        0.501005    0.814952    0.395914     0.007504
AU1832   AU        0.534419    0.781982    0.395288     0.007504
AU1833   AU        0.537118    0.820106    0.361246     0.007504
AU1834   AU        0.569711    0.783749    0.361884     0.007504
PT1835   PT        0.568209    0.818428    0.397510     0.004505
AU1836   AU        0.601829    0.787055    0.398101     0.007504
PT1837   PT        0.600046    0.822385    0.362401     0.004505
PT1838   PT        0.636270    0.785659    0.362825     0.004505
PT1839   PT        0.666239    0.787038    0.399709     0.004505
PT1840   PT        0.398512    0.855308    0.394910     0.004505
AU1841   AU        0.433181    0.849506    0.361115     0.007504
AU1842   AU        0.466663    0.851084    0.396367     0.007504
AU1843   AU        0.270113    0.037636    0.428051     0.007504
AU1844   AU        0.301648    0.040052    0.467985     0.007504
PT1845   PT        0.334486    0.041354    0.433466     0.004505
AU1846   AU        0.367015    0.004478    0.426911     0.007504
AU1847   AU        0.369490    0.042186    0.467408     0.007504
PT1848   PT        0.404658    0.000714    0.466016     0.004505
AU1849   AU        0.401424    0.038080    0.432591     0.007504
AU1850   AU        0.434257    0.005332    0.428113     0.007504
PT1851   PT        0.434543    0.040298    0.466038     0.004505
PT1852   PT        0.470883    0.003664    0.466982     0.004505
AU1853   AU        0.467514    0.041325    0.431858     0.007504
AU1854   AU        0.502892    0.008193    0.431735     0.007504
AU1855   AU        0.500470    0.044554    0.467794     0.007504
PT1856   PT        0.534388    0.042106    0.431903     0.004505
PT1857   PT        0.564150    0.042548    0.467736     0.004505
AU1858   AU        0.596927    0.037996    0.433841     0.007504
AU1859   AU        0.166974    0.108740    0.466194     0.007504
AU1860   AU        0.201916    0.073966    0.466724     0.007504
AU1861   AU        0.203960    0.110745    0.431787     0.007504
PT1862   PT        0.237885    0.075920    0.430660     0.004505
PT1863   PT        0.238529    0.112802    0.465082     0.004505
PT1864   PT        0.271503    0.076652    0.469125     0.004505
AU1865   AU        0.271855    0.111185    0.433754     0.007504
PT1866   PT        0.301460    0.075112    0.433487     0.004505
PT1867   PT        0.304784    0.113940    0.466609     0.004505
AU1868   AU        0.336245    0.077679    0.465844     0.007504
AU1869   AU        0.336359    0.115270    0.431948     0.007504
AU1870   AU        0.368882    0.078835    0.432123     0.007504
PT1871   PT        0.370067    0.113919    0.467847     0.004505
PT1872   PT        0.403058    0.078870    0.466331     0.004505
PT1873   PT        0.402872    0.115938    0.430683     0.004505
PT1874   PT        0.433923    0.077283    0.432779     0.004505
PT1875   PT        0.434466    0.114434    0.467178     0.004505
PT1876   PT        0.468525    0.078692    0.467418     0.004505
PT1877   PT        0.466756    0.114129    0.433280     0.004505
AU1878   AU        0.501436    0.078405    0.432282     0.007504
PT1879   PT        0.499678    0.114177    0.467742     0.004505
AU1880   AU        0.534590    0.080091    0.467999     0.007504
AU1881   AU        0.534591    0.111668    0.433903     0.007504
AU1882   AU        0.567347    0.077081    0.430221     0.007504
PT1883   PT        0.568046    0.113024    0.467569     0.004505
AU1884   AU        0.601441    0.075822    0.467248     0.007504
AU1885   AU        0.602172    0.110415    0.433250     0.007504
AU1886   AU        0.633925    0.073732    0.435165     0.007504
AU1887   AU        0.632677    0.111621    0.469200     0.007504
AU1888   AU        0.668531    0.072094    0.463241     0.007504
AU1889   AU        0.664663    0.108222    0.431664     0.007504
AU1890   AU        0.699953    0.108940    0.466076     0.007504
AU1891   AU        0.106335    0.185750    0.466529     0.007504
PT1892   PT        0.135987    0.144312    0.467585     0.004505
AU1893   AU        0.137858    0.179329    0.433943     0.007504
AU1894   AU        0.171231    0.144425    0.431363     0.007504
AU1895   AU        0.171974    0.179015    0.465610     0.007504
AU1896   AU        0.204496    0.145376    0.467491     0.007504
AU1897   AU        0.204818    0.183790    0.430159     0.007504
AU1898   AU        0.238269    0.149702    0.431027     0.007504
PT1899   PT        0.238645    0.184199    0.465951     0.004505
AU1900   AU        0.272108    0.151333    0.467593     0.007504
PT1901   PT        0.272121    0.184528    0.432910     0.004505
PT1902   PT        0.305466    0.150210    0.431499     0.004505
AU1903   AU        0.303963    0.185758    0.466588     0.007504
AU1904   AU        0.336575    0.149624    0.466483     0.007504
PT1905   PT        0.335826    0.185242    0.432502     0.004505
AU1906   AU        0.367142    0.150436    0.431253     0.007504
PT1907   PT        0.367927    0.185626    0.465583     0.004505
AU1908   AU        0.401325    0.148520    0.465362     0.007504
AU1909   AU        0.400816    0.185501    0.431776     0.007504
AU1910   AU        0.435209    0.149430    0.432381     0.007504
AU1911   AU        0.434895    0.184360    0.467654     0.007504
PT1912   PT        0.467864    0.149716    0.467923     0.004505
AU1913   AU        0.467268    0.185107    0.432945     0.007504
AU1914   AU        0.500282    0.149728    0.433293     0.007504
PT1915   PT        0.499848    0.184208    0.468432     0.004505
AU1916   AU        0.532747    0.149385    0.467905     0.007504
PT1917   PT        0.533447    0.184293    0.432623     0.004505
AU1918   AU        0.568721    0.145211    0.433085     0.007504
PT1919   PT        0.564140    0.183569    0.467918     0.004505
PT1920   PT        0.599882    0.149250    0.467830     0.004505
AU1921   AU        0.598912    0.183334    0.431859     0.007504
AU1922   AU        0.634093    0.146575    0.433653     0.007504
PT1923   PT        0.631168    0.184696    0.466493     0.004505
AU1924   AU        0.667665    0.145055    0.464970     0.007504
AU1925   AU        0.666229    0.181888    0.432628     0.007504
PT1926   PT        0.703109    0.146664    0.430972     0.004505
AU1927   AU        0.703792    0.180400    0.466804     0.007504
AU1928   AU        0.734910    0.142535    0.466450     0.007504
AU1929   AU        0.733990    0.180485    0.429962     0.007504
AU1930   AU        0.766469    0.178908    0.468298     0.007504
PT1931   PT        0.070791    0.255504    0.427911     0.004505
PT1932   PT        0.102718    0.217788    0.429738     0.004505
PT1933   PT        0.104889    0.253301    0.463635     0.004505
AU1934   AU        0.139606    0.219944    0.464762     0.007504
PT1935   PT        0.139177    0.254749    0.430746     0.004505
AU1936   AU        0.171826    0.218740    0.431351     0.007504
PT1937   PT        0.173018    0.254308    0.464636     0.004505
PT1938   PT        0.205510    0.219289    0.466228     0.004505
PT1939   PT        0.206530    0.253578    0.429350     0.004505
PT1940   PT        0.238004    0.220948    0.431434     0.004505
AU1941   AU        0.238744    0.255744    0.465695     0.007504
AU1942   AU        0.271175    0.222024    0.468360     0.007504
AU1943   AU        0.270458    0.253673    0.431555     0.007504
AU1944   AU        0.304575    0.220081    0.431731     0.007504
AU1945   AU        0.304325    0.254564    0.467240     0.007504
AU1946   AU        0.335965    0.220436    0.466196     0.007504
PT1947   PT        0.336756    0.254466    0.430330     0.004505
PT1948   PT        0.369183    0.220453    0.431043     0.004505
AU1949   AU        0.369117    0.254533    0.466706     0.007504
PT1950   PT        0.401690    0.220502    0.467419     0.004505
AU1951   AU        0.401122    0.254689    0.431745     0.007504
PT1952   PT        0.435239    0.220634    0.431582     0.004505
PT1953   PT        0.434326    0.254219    0.466971     0.004505
AU1954   AU        0.467731    0.219094    0.468153     0.007504
PT1955   PT        0.468394    0.255506    0.431821     0.004505
PT1956   PT        0.499711    0.217840    0.433161     0.004505
PT1957   PT        0.500490    0.254070    0.466349     0.004505
AU1958   AU        0.531560    0.218714    0.467937     0.007504
AU1959   AU        0.534273    0.252707    0.432781     0.007504
PT1960   PT        0.566076    0.218713    0.433939     0.004505
PT1961   PT        0.564595    0.253796    0.467885     0.004505
AU1962   AU        0.597970    0.217465    0.468496     0.007504
PT1963   PT        0.597857    0.253623    0.434099     0.004505
PT1964   PT        0.632951    0.218995    0.434692     0.004505
AU1965   AU        0.630634    0.255525    0.468238     0.007504
AU1966   AU        0.667240    0.218060    0.465556     0.007504
AU1967   AU        0.664217    0.254697    0.432932     0.007504
PT1968   PT        0.699490    0.217312    0.428274     0.004505
AU1969   AU        0.699196    0.255822    0.466950     0.007504
AU1970   AU        0.732227    0.217521    0.463300     0.007504
PT1971   PT        0.732720    0.254638    0.431414     0.004505
AU1972   AU        0.766363    0.217899    0.430818     0.007504
AU1973   AU        0.767449    0.255968    0.463975     0.007504
PT1974   PT        0.803463    0.250403    0.426956     0.004505
PT1975   PT        0.070180    0.289250    0.462877     0.004505
PT1976   PT        0.073993    0.326037    0.429481     0.004505
PT1977   PT        0.107309    0.290836    0.431659     0.004505
PT1978   PT        0.107134    0.323648    0.466116     0.004505
PT1979   PT        0.139077    0.288790    0.465138     0.004505
AU1980   AU        0.141389    0.325643    0.431375     0.007504
AU1981   AU        0.173297    0.289363    0.432209     0.007504
PT1982   PT        0.174242    0.323298    0.465697     0.004505
PT1983   PT        0.205837    0.290247    0.466195     0.004505
PT1984   PT        0.206613    0.324885    0.431064     0.004505
PT1985   PT        0.238148    0.290167    0.431654     0.004505
PT1986   PT        0.237736    0.324550    0.465707     0.004505
AU1987   AU        0.271491    0.290187    0.466003     0.007504
PT1988   PT        0.270387    0.325002    0.433133     0.004505
AU1989   AU        0.303330    0.288440    0.432069     0.007504
PT1990   PT        0.305365    0.325692    0.465485     0.004505
PT1991   PT        0.336380    0.288921    0.467601     0.004505
AU1992   AU        0.339316    0.324826    0.431611     0.007504
PT1993   PT        0.368839    0.288951    0.432378     0.004505
PT1994   PT        0.368706    0.323334    0.467434     0.004505
AU1995   AU        0.403192    0.289468    0.466687     0.007504
PT1996   PT        0.401779    0.324544    0.432439     0.004505
AU1997   AU        0.435580    0.287972    0.429907     0.007504
PT1998   PT        0.435464    0.321845    0.467778     0.004505
PT1999   PT        0.467674    0.287952    0.467766     0.004505
PT2000   PT        0.467423    0.324019    0.431565     0.004505
PT2001   PT        0.501881    0.288440    0.432308     0.004505
PT2002   PT        0.500840    0.323189    0.465685     0.004505
PT2003   PT        0.534031    0.286915    0.467326     0.004505
PT2004   PT        0.533105    0.323423    0.431632     0.004505
AU2005   AU        0.565969    0.288592    0.432144     0.007504
AU2006   AU        0.565444    0.324065    0.467747     0.007504
PT2007   PT        0.598475    0.289855    0.468320     0.004505
PT2008   PT        0.597644    0.324797    0.433951     0.004505
PT2009   PT        0.630968    0.290367    0.431305     0.004505
PT2010   PT        0.630218    0.321977    0.467147     0.004505
AU2011   AU        0.663422    0.291052    0.467838     0.007504
PT2012   PT        0.663932    0.324839    0.431286     0.004505
AU2013   AU        0.697183    0.289011    0.431100     0.007504
AU2014   AU        0.698905    0.325612    0.464768     0.007504
PT2015   PT        0.733019    0.292126    0.465048     0.004505
AU2016   AU        0.733352    0.322723    0.427232     0.007504
PT2017   PT        0.766513    0.290356    0.427588     0.004505
PT2018   PT        0.768258    0.326370    0.463215     0.004505
AU2019   AU        0.801074    0.287975    0.460018     0.007504
AU2020   AU        0.803512    0.324158    0.426904     0.007504
AU2021   AU        0.039961    0.358612    0.428840     0.007504
PT2022   PT        0.037375    0.391559    0.466676     0.004505
PT2023   PT        0.074799    0.358749    0.465470     0.004505
PT2024   PT        0.070953    0.393238    0.431340     0.004505
AU2025   AU        0.106895    0.358635    0.431374     0.007504
PT2026   PT        0.106195    0.393235    0.466177     0.004505
AU2027   AU        0.139546    0.360145    0.465225     0.007504
AU2028   AU        0.141568    0.395455    0.430349     0.007504
PT2029   PT        0.173272    0.358779    0.431617     0.004505
AU2030   AU        0.171910    0.394913    0.467850     0.007504
PT2031   PT        0.205317    0.358775    0.466217     0.004505
AU2032   AU        0.206773    0.394246    0.432984     0.007504
PT2033   PT        0.238162    0.359323    0.430902     0.004505
PT2034   PT        0.239409    0.394111    0.466919     0.004505
AU2035   AU        0.271712    0.360061    0.468035     0.007504
PT2036   PT        0.270514    0.395340    0.430817     0.004505
AU2037   AU        0.304778    0.359081    0.431272     0.007504
AU2038   AU        0.302827    0.394234    0.465812     0.007504
PT2039   PT        0.336687    0.359843    0.467958     0.004505
AU2040   AU        0.335705    0.395315    0.431615     0.007504
PT2041   PT        0.369858    0.359826    0.430697     0.004505
PT2042   PT        0.369020    0.393075    0.466296     0.004505
AU2043   AU        0.402317    0.360121    0.466607     0.007504
PT2044   PT        0.402800    0.393620    0.430753     0.004505
AU2045   AU        0.434318    0.357392    0.432194     0.007504
PT2046   PT        0.434526    0.393623    0.465759     0.004505
PT2047   PT        0.468292    0.358965    0.465794     0.004505
PT2048   PT        0.469375    0.394771    0.430115     0.004505
PT2049   PT        0.501260    0.358791    0.432141     0.004505
AU2050   AU        0.499454    0.393886    0.466938     0.007504
AU2051   AU        0.532117    0.359991    0.467166     0.007504
PT2052   PT        0.534267    0.395390    0.431022     0.004505
AU2053   AU        0.564168    0.360261    0.431398     0.007504
PT2054   PT        0.565980    0.395101    0.468199     0.004505
PT2055   PT        0.598781    0.358279    0.469146     0.004505
PT2056   PT        0.598083    0.391714    0.432137     0.004505
PT2057   PT        0.631190    0.358181    0.432589     0.004505
AU2058   AU        0.631061    0.394287    0.465863     0.007504
AU2059   AU        0.663379    0.358848    0.467359     0.007504
PT2060   PT        0.665642    0.394220    0.430352     0.004505
PT2061   PT        0.697624    0.360255    0.431687     0.004505
PT2062   PT        0.696745    0.396588    0.465555     0.004505
AU2063   AU        0.730082    0.360197    0.467831     0.007504
AU2064   AU        0.729184    0.395887    0.431816     0.007504
PT2065   PT        0.767141    0.358600    0.427556     0.004505
PT2066   PT        0.765663    0.394274    0.464609     0.004505
PT2067   PT        0.802769    0.360634    0.463917     0.004505
PT2068   PT        0.799553    0.396251    0.432433     0.004505
PT2069   PT        0.836308    0.365046    0.426529     0.004505
PT2070   PT        0.835802    0.397336    0.469096     0.004505
AU2071   AU        0.036009    0.427380    0.433047     0.007504
PT2072   PT        0.000667    0.464933    0.431183     0.004505
PT2073   PT        0.071961    0.428261    0.466945     0.004505
PT2074   PT        0.070942    0.462054    0.433711     0.004505
AU2075   AU        0.105254    0.429978    0.432831     0.007504
AU2076   AU        0.107713    0.464270    0.466301     0.007504
AU2077   AU        0.139378    0.429847    0.465304     0.007504
PT2078   PT        0.139588    0.465051    0.431927     0.004505
PT2079   PT        0.173293    0.429184    0.431472     0.004505
PT2080   PT        0.172802    0.464102    0.465618     0.004505
PT2081   PT        0.205934    0.429743    0.466138     0.004505
PT2082   PT        0.205585    0.465187    0.432454     0.004505
PT2083   PT        0.237910    0.429610    0.431994     0.004505
AU2084   AU        0.237782    0.463120    0.466311     0.007504
PT2085   PT        0.270149    0.430003    0.466367     0.004505
PT2086   PT        0.270700    0.465379    0.430236     0.004505
PT2087   PT        0.304026    0.429499    0.433765     0.004505
PT2088   PT        0.303336    0.465086    0.467157     0.004505
PT2089   PT        0.336513    0.429309    0.466687     0.004505
AU2090   AU        0.336802    0.463412    0.432996     0.007504
PT2091   PT        0.369182    0.429680    0.431679     0.004505
PT2092   PT        0.368322    0.465703    0.466603     0.004505
PT2093   PT        0.403534    0.428760    0.466769     0.004505
AU2094   AU        0.401590    0.464760    0.431608     0.007504
PT2095   PT        0.436169    0.430004    0.430939     0.004505
AU2096   AU        0.436267    0.464222    0.467361     0.007504
PT2097   PT        0.466800    0.428807    0.465943     0.004505
AU2098   AU        0.466393    0.464855    0.432055     0.007504
PT2099   PT        0.500356    0.429932    0.430544     0.004505
PT2100   PT        0.500674    0.463051    0.466506     0.004505
AU2101   AU        0.533446    0.429902    0.467725     0.007504
PT2102   PT        0.533292    0.463903    0.431758     0.004505
PT2103   PT        0.567404    0.428480    0.432654     0.004505
PT2104   PT        0.565804    0.464738    0.466190     0.004505
PT2105   PT        0.598300    0.429463    0.469004     0.004505
PT2106   PT        0.599194    0.465054    0.432467     0.004505
PT2107   PT        0.632380    0.431639    0.432088     0.004505
AU2108   AU        0.631883    0.464782    0.468215     0.007504
PT2109   PT        0.664456    0.430430    0.466856     0.004505
PT2110   PT        0.663926    0.466201    0.432206     0.004505
PT2111   PT        0.699351    0.432636    0.432313     0.004505
AU2112   AU        0.698097    0.465846    0.466558     0.007504
AU2113   AU        0.730110    0.431095    0.467097     0.007504
PT2114   PT        0.732997    0.466080    0.430263     0.004505
AU2115   AU        0.765277    0.429899    0.429708     0.007504
AU2116   AU        0.765283    0.466270    0.465982     0.007504
AU2117   AU        0.799506    0.429845    0.466029     0.007504
AU2118   AU        0.799869    0.466889    0.431292     0.007504
AU2119   AU        0.833118    0.429560    0.431075     0.007504
AU2120   AU        0.870207    0.425632    0.460002     0.007504
PT2121   PT        0.037264    0.497146    0.431872     0.004505
AU2122   AU        0.072640    0.498425    0.465393     0.007504
PT2123   PT        0.069562    0.532852    0.431961     0.004505
AU2124   AU        0.104694    0.501121    0.428723     0.007504
PT2125   PT        0.105677    0.533266    0.468624     0.004505
AU2126   AU        0.138369    0.499769    0.466384     0.007504
AU2127   AU        0.139109    0.535713    0.431155     0.007504
PT2128   PT        0.172697    0.498986    0.429620     0.004505
AU2129   AU        0.170966    0.534097    0.465301     0.007504
PT2130   PT        0.204859    0.499810    0.465282     0.004505
PT2131   PT        0.206820    0.534428    0.430811     0.004505
AU2132   AU        0.238439    0.498842    0.431080     0.007504
PT2133   PT        0.237796    0.533955    0.464241     0.004505
PT2134   PT        0.271713    0.498583    0.466534     0.004505
AU2135   AU        0.271746    0.534459    0.430896     0.007504
AU2136   AU        0.303046    0.498317    0.431636     0.007504
PT2137   PT        0.303774    0.533722    0.466499     0.004505
PT2138   PT        0.336389    0.501033    0.466776     0.004505
AU2139   AU        0.337003    0.534770    0.431506     0.007504
PT2140   PT        0.369656    0.500026    0.430834     0.004505
PT2141   PT        0.369414    0.535099    0.466903     0.004505
AU2142   AU        0.402925    0.501042    0.465600     0.007504
PT2143   PT        0.403376    0.534700    0.431472     0.004505
PT2144   PT        0.433482    0.499273    0.430930     0.004505
PT2145   PT        0.434369    0.536461    0.466579     0.004505
PT2146   PT        0.467344    0.499556    0.465881     0.004505
PT2147   PT        0.467719    0.534135    0.430385     0.004505
PT2148   PT        0.500674    0.498021    0.432656     0.004505
PT2149   PT        0.500118    0.534952    0.465289     0.004505
PT2150   PT        0.532325    0.500799    0.466558     0.004505
PT2151   PT        0.533481    0.534770    0.431910     0.004505
PT2152   PT        0.565821    0.501054    0.432676     0.004505
PT2153   PT        0.565147    0.534568    0.466632     0.004505
PT2154   PT        0.599907    0.499459    0.466820     0.004505
PT2155   PT        0.597917    0.534398    0.432718     0.004505
PT2156   PT        0.631419    0.500760    0.432782     0.004505
PT2157   PT        0.631721    0.534300    0.466694     0.004505
PT2158   PT        0.664232    0.499497    0.465891     0.004505
AU2159   AU        0.668110    0.534932    0.430837     0.007504
AU2160   AU        0.699541    0.500904    0.429772     0.007504
PT2161   PT        0.697802    0.534673    0.468948     0.004505
PT2162   PT        0.730999    0.499205    0.466061     0.004505
AU2163   AU        0.731814    0.535409    0.431774     0.007504
AU2164   AU        0.764962    0.500505    0.429129     0.007504
AU2165   AU        0.765088    0.536879    0.466888     0.007504
AU2166   AU        0.795888    0.503479    0.465944     0.007504
AU2167   AU        0.797632    0.537088    0.428708     0.007504
PT2168   PT        0.832857    0.505030    0.433332     0.004505
AU2169   AU        0.071719    0.568238    0.466470     0.007504
AU2170   AU        0.069856    0.605347    0.428803     0.007504
AU2171   AU        0.104356    0.567816    0.431613     0.007504
PT2172   PT        0.104574    0.601782    0.466492     0.004505
AU2173   AU        0.137265    0.570326    0.467468     0.007504
AU2174   AU        0.136803    0.603566    0.430395     0.007504
AU2175   AU        0.172394    0.569430    0.430451     0.007504
AU2176   AU        0.172416    0.607428    0.463755     0.007504
AU2177   AU        0.208009    0.570306    0.466133     0.007504
PT2178   PT        0.206275    0.606040    0.429062     0.004505
PT2179   PT        0.239118    0.570972    0.430989     0.004505
AU2180   AU        0.240015    0.605689    0.464605     0.007504
PT2181   PT        0.271333    0.568657    0.465717     0.004505
AU2182   AU        0.271673    0.604342    0.430051     0.007504
AU2183   AU        0.304310    0.569472    0.431416     0.007504
AU2184   AU        0.304237    0.605290    0.466546     0.007504
AU2185   AU        0.337047    0.570927    0.467406     0.007504
AU2186   AU        0.337034    0.605349    0.430928     0.007504
PT2187   PT        0.368228    0.569664    0.430126     0.004505
PT2188   PT        0.369943    0.604764    0.464789     0.004505
PT2189   PT        0.401431    0.570195    0.466089     0.004505
PT2190   PT        0.403052    0.604274    0.431071     0.004505
PT2191   PT        0.434616    0.570107    0.431357     0.004505
PT2192   PT        0.435000    0.604605    0.466524     0.004505
AU2193   AU        0.465774    0.570133    0.465820     0.007504
PT2194   PT        0.467340    0.604060    0.432535     0.004505
PT2195   PT        0.500731    0.569208    0.430206     0.004505
PT2196   PT        0.500883    0.607292    0.465756     0.004505
PT2197   PT        0.533870    0.569127    0.466546     0.004505
PT2198   PT        0.533588    0.603569    0.432668     0.004505
PT2199   PT        0.567055    0.569090    0.431852     0.004505
PT2200   PT        0.565961    0.605022    0.464737     0.004505
AU2201   AU        0.598740    0.569485    0.466018     0.007504
PT2202   PT        0.598304    0.606133    0.431150     0.004505
PT2203   PT        0.631369    0.569365    0.431298     0.004505
AU2204   AU        0.631597    0.605602    0.465566     0.007504
AU2205   AU        0.664830    0.571580    0.466869     0.007504
AU2206   AU        0.665372    0.605679    0.432750     0.007504
AU2207   AU        0.697878    0.572258    0.431265     0.007504
AU2208   AU        0.698286    0.606593    0.466568     0.007504
AU2209   AU        0.730262    0.572777    0.466353     0.007504
AU2210   AU        0.733780    0.607382    0.432746     0.007504
AU2211   AU        0.764515    0.570775    0.429715     0.007504
AU2212   AU        0.765185    0.608136    0.466133     0.007504
AU2213   AU        0.800149    0.569580    0.466208     0.007504
AU2214   AU        0.800546    0.602193    0.432021     0.007504
PT2215   PT        0.101618    0.641395    0.430850     0.004505
PT2216   PT        0.102803    0.677657    0.465537     0.004505
AU2217   AU        0.136691    0.639552    0.464154     0.007504
AU2218   AU        0.136372    0.679294    0.430009     0.007504
AU2219   AU        0.170409    0.642797    0.428423     0.007504
AU2220   AU        0.171143    0.674004    0.465751     0.007504
AU2221   AU        0.206209    0.640612    0.465811     0.007504
AU2222   AU        0.204829    0.676467    0.432475     0.007504
AU2223   AU        0.238377    0.641108    0.430551     0.007504
AU2224   AU        0.237511    0.677503    0.465395     0.007504
AU2225   AU        0.271819    0.641283    0.467566     0.007504
PT2226   PT        0.271796    0.676034    0.431812     0.004505
PT2227   PT        0.303522    0.640747    0.431045     0.004505
PT2228   PT        0.305665    0.674611    0.465951     0.004505
AU2229   AU        0.338967    0.639598    0.464820     0.007504
PT2230   PT        0.336979    0.674357    0.430806     0.004505
PT2231   PT        0.370123    0.641059    0.430848     0.004505
PT2232   PT        0.370231    0.675589    0.468186     0.004505
PT2233   PT        0.402529    0.640767    0.465913     0.004505
PT2234   PT        0.402158    0.675722    0.432155     0.004505
PT2235   PT        0.434819    0.640810    0.431149     0.004505
PT2236   PT        0.435849    0.674751    0.465981     0.004505
PT2237   PT        0.466762    0.641080    0.465527     0.004505
AU2238   AU        0.468658    0.675082    0.430906     0.007504
PT2239   PT        0.501569    0.640480    0.431301     0.004505
PT2240   PT        0.500612    0.674434    0.466878     0.004505
PT2241   PT        0.533533    0.639101    0.466025     0.004505
PT2242   PT        0.533913    0.673580    0.431832     0.004505
PT2243   PT        0.566437    0.639120    0.432077     0.004505
PT2244   PT        0.566309    0.674393    0.467040     0.004505
AU2245   AU        0.600012    0.640063    0.466778     0.007504
AU2246   AU        0.597074    0.674314    0.432400     0.007504
PT2247   PT        0.630484    0.640031    0.431533     0.004505
PT2248   PT        0.632603    0.674819    0.467401     0.004505
AU2249   AU        0.662876    0.638739    0.466480     0.007504
AU2250   AU        0.665861    0.675094    0.433908     0.007504
AU2251   AU        0.698457    0.639552    0.432044     0.007504
AU2252   AU        0.699345    0.679187    0.466019     0.007504
PT2253   PT        0.730562    0.642758    0.466769     0.004505
AU2254   AU        0.736806    0.677837    0.432096     0.007504
AU2255   AU        0.770673    0.642889    0.433649     0.007504
PT2256   PT        0.767932    0.680723    0.467816     0.004505
PT2257   PT        0.136665    0.716723    0.467184     0.004505
AU2258   AU        0.172746    0.715666    0.431703     0.007504
PT2259   PT        0.171161    0.751872    0.468576     0.004505
AU2260   AU        0.204950    0.713398    0.465616     0.007504
PT2261   PT        0.206384    0.749186    0.432876     0.004505
AU2262   AU        0.239444    0.711198    0.430656     0.007504
PT2263   PT        0.239930    0.745462    0.466631     0.004505
PT2264   PT        0.271222    0.709856    0.466656     0.004505
AU2265   AU        0.271882    0.744971    0.431406     0.007504
PT2266   PT        0.305753    0.709310    0.430565     0.004505
AU2267   AU        0.303739    0.745295    0.466722     0.007504
AU2268   AU        0.337933    0.710665    0.466832     0.007504
AU2269   AU        0.338059    0.745950    0.431973     0.007504
AU2270   AU        0.369288    0.711056    0.431301     0.007504
AU2271   AU        0.369851    0.744962    0.466272     0.007504
PT2272   PT        0.402579    0.709470    0.467667     0.004505
PT2273   PT        0.402652    0.744850    0.432660     0.004505
PT2274   PT        0.436709    0.709182    0.430561     0.004505
PT2275   PT        0.434901    0.743913    0.467510     0.004505
AU2276   AU        0.468833    0.708394    0.465739     0.007504
AU2277   AU        0.467180    0.745712    0.432514     0.007504
AU2278   AU        0.500777    0.709865    0.431312     0.007504
PT2279   PT        0.500412    0.744221    0.465528     0.004505
PT2280   PT        0.531900    0.710460    0.467166     0.004505
AU2281   AU        0.533306    0.746294    0.431788     0.007504
AU2282   AU        0.565448    0.710527    0.432038     0.007504
PT2283   PT        0.566737    0.744535    0.467191     0.004505
AU2284   AU        0.600397    0.712342    0.466468     0.007504
AU2285   AU        0.600052    0.749662    0.429766     0.007504
AU2286   AU        0.632789    0.711733    0.432337     0.007504
AU2287   AU        0.632244    0.750130    0.467014     0.007504
AU2288   AU        0.665643    0.711217    0.465647     0.007504
PT2289   PT        0.665086    0.750108    0.434288     0.004505
AU2290   AU        0.702725    0.710940    0.430428     0.007504
PT2291   PT        0.734590    0.792023    0.469539     0.004505
AU2292   AU        0.733962    0.714070    0.464867     0.007504
PT2293   PT        0.206877    0.784093    0.468020     0.004505
PT2294   PT        0.239601    0.780997    0.431410     0.004505
PT2295   PT        0.273864    0.781782    0.465449     0.004505
PT2296   PT        0.274098    0.820212    0.429849     0.004505
PT2297   PT        0.304036    0.780733    0.430592     0.004505
AU2298   AU        0.304862    0.815709    0.466045     0.007504
PT2299   PT        0.335405    0.780662    0.467257     0.004505
PT2300   PT        0.338005    0.815417    0.430975     0.004505
AU2301   AU        0.371079    0.781559    0.434626     0.007504
AU2302   AU        0.370232    0.817207    0.467550     0.007504
AU2303   AU        0.403298    0.782034    0.468628     0.007504
AU2304   AU        0.404175    0.820485    0.430503     0.007504
PT2305   PT        0.436187    0.779807    0.431177     0.004505
AU2306   AU        0.435662    0.821441    0.466121     0.007504
AU2307   AU        0.468963    0.781925    0.466531     0.007504
PT2308   PT        0.468498    0.817400    0.431239     0.004505
AU2309   AU        0.499712    0.779698    0.431047     0.007504
PT2310   PT        0.501551    0.820138    0.464840     0.004505
PT2311   PT        0.532473    0.779886    0.466294     0.004505
AU2312   AU        0.534704    0.817915    0.430133     0.007504
AU2313   AU        0.566381    0.781584    0.431229     0.007504
PT2314   PT        0.565470    0.814339    0.466375     0.004505
PT2315   PT        0.598752    0.781930    0.465853     0.004505
PT2316   PT        0.600191    0.820539    0.433514     0.004505
AU2317   AU        0.631684    0.784130    0.434338     0.007504
PT2318   PT        0.665920    0.786350    0.468123     0.004505
PT2319   PT        0.369554    0.853155    0.430985     0.004505
PT2320   PT        0.402270    0.856081    0.467482     0.004505
PT2321   PT        0.431189    0.859291    0.430691     0.004505
PT2322   PT        0.467377    0.856950    0.461920     0.004505
AU2323   AU        0.501610    0.855492    0.425234     0.007504
PT2324   PT        0.270432    0.039069    0.502424     0.004505
AU2325   AU        0.344446    0.000853    0.533297     0.007504
AU2326   AU        0.336865    0.040732    0.499901     0.007504
PT2327   PT        0.370785    0.039585    0.535429     0.004505
AU2328   AU        0.403067    0.037663    0.500322     0.007504
PT2329   PT        0.435445    0.001880    0.498947     0.004505
AU2330   AU        0.435862    0.040967    0.536789     0.007504
AU2331   AU        0.466763    0.039021    0.501826     0.007504
AU2332   AU        0.499735    0.041727    0.535835     0.007504
PT2333   PT        0.531633    0.042703    0.500627     0.004505
AU2334   AU        0.562700    0.038923    0.535257     0.007504
AU2335   AU        0.600952    0.036353    0.502425     0.007504
AU2336   AU        0.203259    0.108074    0.500671     0.007504
PT2337   PT        0.236923    0.075308    0.500945     0.004505
AU2338   AU        0.238121    0.113054    0.534916     0.007504
PT2339   PT        0.270740    0.076350    0.536135     0.004505
PT2340   PT        0.271708    0.113252    0.501422     0.004505
AU2341   AU        0.305026    0.078734    0.502270     0.007504
PT2342   PT        0.303816    0.115436    0.537118     0.004505
PT2343   PT        0.337277    0.080677    0.536555     0.004505
PT2344   PT        0.337311    0.113777    0.501979     0.004505
PT2345   PT        0.371035    0.077322    0.501263     0.004505
AU2346   AU        0.369619    0.114735    0.536143     0.007504
PT2347   PT        0.402282    0.078397    0.535651     0.004505
AU2348   AU        0.401866    0.115670    0.502379     0.007504
AU2349   AU        0.433979    0.075877    0.502593     0.007504
AU2350   AU        0.436313    0.113964    0.536771     0.007504
PT2351   PT        0.468515    0.077015    0.536382     0.004505
AU2352   AU        0.466911    0.112257    0.500500     0.007504
AU2353   AU        0.501226    0.079804    0.501832     0.007504
PT2354   PT        0.499435    0.113964    0.537785     0.004505
PT2355   PT        0.532782    0.076406    0.537631     0.004505
AU2356   AU        0.532235    0.113482    0.503156     0.007504
AU2357   AU        0.567474    0.077373    0.503437     0.007504
PT2358   PT        0.566476    0.112073    0.538468     0.004505
AU2359   AU        0.602203    0.073000    0.537946     0.007504
AU2360   AU        0.597633    0.112001    0.504113     0.007504
AU2361   AU        0.634703    0.073949    0.501951     0.007504
AU2362   AU        0.632307    0.114184    0.536591     0.007504
PT2363   PT        0.668546    0.110564    0.501025     0.004505
PT2364   PT        0.141741    0.182164    0.500735     0.004505
AU2365   AU        0.172546    0.146823    0.501276     0.007504
AU2366   AU        0.173786    0.182590    0.535366     0.007504
PT2367   PT        0.206438    0.148005    0.534542     0.004505
PT2368   PT        0.205338    0.183534    0.499349     0.004505
PT2369   PT        0.239080    0.150508    0.500830     0.004505
PT2370   PT        0.238114    0.185246    0.535590     0.004505
AU2371   AU        0.270526    0.149259    0.535960     0.007504
AU2372   AU        0.272430    0.185600    0.501940     0.007504
AU2373   AU        0.303647    0.149549    0.502131     0.007504
PT2374   PT        0.304867    0.185877    0.536987     0.004505
PT2375   PT        0.336689    0.150033    0.536899     0.004505
PT2376   PT        0.335318    0.185882    0.501147     0.004505
AU2377   AU        0.369041    0.150206    0.502441     0.007504
PT2378   PT        0.369421    0.185997    0.535948     0.004505
AU2379   AU        0.401445    0.149906    0.536666     0.007504
PT2380   PT        0.401258    0.184495    0.503070     0.004505
PT2381   PT        0.435145    0.148242    0.502071     0.004505
PT2382   PT        0.435428    0.184389    0.538226     0.004505
PT2383   PT        0.467820    0.149132    0.536498     0.004505
PT2384   PT        0.467432    0.184046    0.501873     0.004505
PT2385   PT        0.500356    0.147168    0.501131     0.004505
AU2386   AU        0.498287    0.183250    0.538519     0.007504
AU2387   AU        0.532649    0.149459    0.537851     0.007504
AU2388   AU        0.530971    0.183793    0.502547     0.007504
PT2389   PT        0.565843    0.151578    0.503406     0.004505
PT2390   PT        0.565363    0.183043    0.537174     0.004505
AU2391   AU        0.599078    0.150164    0.536973     0.007504
AU2392   AU        0.598114    0.185566    0.501614     0.007504
AU2393   AU        0.633978    0.149061    0.501457     0.007504
AU2394   AU        0.632387    0.184123    0.535680     0.007504
PT2395   PT        0.665719    0.149659    0.535612     0.004505
AU2396   AU        0.671131    0.181729    0.500099     0.007504
PT2397   PT        0.700814    0.145027    0.502709     0.004505
AU2398   AU        0.698552    0.181935    0.536830     0.007504
PT2399   PT        0.734218    0.182323    0.504660     0.004505
AU2400   AU        0.073008    0.252388    0.503128     0.007504
PT2401   PT        0.106970    0.220839    0.500075     0.004505
AU2402   AU        0.107438    0.253378    0.536645     0.007504
AU2403   AU        0.141748    0.219738    0.535950     0.007504
AU2404   AU        0.139047    0.255157    0.500784     0.007504
PT2405   PT        0.173302    0.220208    0.500237     0.004505
PT2406   PT        0.173054    0.253880    0.534878     0.004505
PT2407   PT        0.206013    0.221429    0.536133     0.004505
AU2408   AU        0.205387    0.254827    0.500508     0.007504
PT2409   PT        0.238478    0.219435    0.500583     0.004505
PT2410   PT        0.238299    0.252954    0.536262     0.004505
AU2411   AU        0.271935    0.219080    0.537570     0.007504
AU2412   AU        0.271308    0.255554    0.503149     0.007504
AU2413   AU        0.304140    0.219654    0.501992     0.007504
PT2414   PT        0.304024    0.254645    0.536727     0.004505
AU2415   AU        0.337465    0.219085    0.536022     0.007504
AU2416   AU        0.336822    0.254755    0.502497     0.007504
PT2417   PT        0.370858    0.219392    0.500961     0.004505
PT2418   PT        0.370532    0.254214    0.537748     0.004505
PT2419   PT        0.401501    0.219751    0.538224     0.004505
PT2420   PT        0.401121    0.254530    0.502629     0.004505
PT2421   PT        0.434705    0.220264    0.503759     0.004505
PT2422   PT        0.434766    0.254023    0.537767     0.004505
PT2423   PT        0.467000    0.219032    0.537740     0.004505
PT2424   PT        0.467418    0.254136    0.502553     0.004505
PT2425   PT        0.500777    0.218522    0.503122     0.004505
AU2426   AU        0.500068    0.254247    0.538342     0.007504
AU2427   AU        0.533275    0.218319    0.539065     0.007504
PT2428   PT        0.532707    0.252207    0.502250     0.004505
PT2429   PT        0.565692    0.219242    0.504684     0.004505
PT2430   PT        0.565212    0.254338    0.539310     0.004505
PT2431   PT        0.598089    0.219482    0.538881     0.004505
AU2432   AU        0.597248    0.253481    0.500480     0.007504
AU2433   AU        0.632292    0.217967    0.501289     0.007504
PT2434   PT        0.631492    0.253822    0.536547     0.004505
PT2435   PT        0.665053    0.218239    0.536629     0.004505
AU2436   AU        0.664964    0.255123    0.502397     0.007504
AU2437   AU        0.698605    0.218680    0.501301     0.007504
PT2438   PT        0.699068    0.253945    0.534917     0.004505
AU2439   AU        0.732700    0.219267    0.534899     0.007504
AU2440   AU        0.734038    0.253996    0.498149     0.007504
AU2441   AU        0.768547    0.219466    0.498680     0.007504
PT2442   PT        0.764498    0.253667    0.537301     0.004505
AU2443   AU        0.810064    0.240808    0.481408     0.007504
AU2444   AU        0.074421    0.289524    0.534836     0.007504
PT2445   PT        0.073244    0.325753    0.500604     0.004505
AU2446   AU        0.106644    0.288172    0.499697     0.007504
AU2447   AU        0.106279    0.322596    0.536376     0.007504
PT2448   PT        0.139799    0.290074    0.536527     0.004505
PT2449   PT        0.142120    0.324731    0.501034     0.004505
AU2450   AU        0.173025    0.288542    0.499915     0.007504
PT2451   PT        0.174213    0.324622    0.535246     0.004505
AU2452   AU        0.204960    0.289790    0.537180     0.007504
PT2453   PT        0.205142    0.324796    0.501338     0.004505
PT2454   PT        0.238745    0.289873    0.500625     0.004505
AU2455   AU        0.238016    0.324083    0.537228     0.007504
PT2456   PT        0.272036    0.288652    0.537471     0.004505
PT2457   PT        0.270772    0.324149    0.500427     0.004505
PT2458   PT        0.302729    0.289657    0.500821     0.004505
PT2459   PT        0.305019    0.324390    0.536228     0.004505
PT2460   PT        0.336269    0.288994    0.536237     0.004505
PT2461   PT        0.334567    0.324599    0.501516     0.004505
PT2462   PT        0.368759    0.290756    0.501844     0.004505
AU2463   AU        0.369132    0.323877    0.537494     0.007504
PT2464   PT        0.401594    0.288371    0.537651     0.004505
AU2465   AU        0.401035    0.324587    0.501671     0.007504
AU2466   AU        0.434860    0.289744    0.502203     0.007504
PT2467   PT        0.435041    0.323904    0.537625     0.004505
PT2468   PT        0.467840    0.290177    0.537895     0.004505
PT2469   PT        0.468148    0.324764    0.501310     0.004505
PT2470   PT        0.499484    0.288825    0.501550     0.004505
PT2471   PT        0.498544    0.325530    0.536641     0.004505
PT2472   PT        0.532315    0.287857    0.538042     0.004505
PT2473   PT        0.534158    0.323925    0.501714     0.004505
PT2474   PT        0.565089    0.287060    0.502173     0.004505
AU2475   AU        0.565071    0.323352    0.536732     0.007504
AU2476   AU        0.598755    0.288223    0.536764     0.007504
PT2477   PT        0.597579    0.322627    0.503608     0.004505
PT2478   PT        0.631166    0.290853    0.501801     0.004505
PT2479   PT        0.630933    0.324551    0.536178     0.004505
AU2480   AU        0.664730    0.290080    0.538041     0.007504
AU2481   AU        0.664616    0.324577    0.503445     0.007504
AU2482   AU        0.698898    0.291628    0.504081     0.007504
AU2483   AU        0.697765    0.325290    0.538391     0.007504
AU2484   AU        0.734099    0.291026    0.536454     0.007504
AU2485   AU        0.732123    0.326218    0.501270     0.007504
AU2486   AU        0.765190    0.291222    0.499937     0.007504
AU2487   AU        0.766040    0.325505    0.536536     0.007504
PT2488   PT        0.800134    0.290205    0.533646     0.004505
PT2489   PT        0.799928    0.321605    0.497610     0.004505
PT2490   PT        0.075846    0.359443    0.535873     0.004505
AU2491   AU        0.071212    0.392984    0.500767     0.007504
AU2492   AU        0.106639    0.358580    0.499918     0.007504
PT2493   PT        0.107011    0.394404    0.535800     0.004505
PT2494   PT        0.138553    0.359843    0.535787     0.004505
PT2495   PT        0.139973    0.394961    0.501194     0.004505
AU2496   AU        0.172214    0.358774    0.501750     0.007504
AU2497   AU        0.172409    0.395912    0.536289     0.007504
AU2498   AU        0.204002    0.359352    0.537605     0.007504
PT2499   PT        0.205634    0.393894    0.502215     0.004505
PT2500   PT        0.239305    0.360164    0.502581     0.004505
PT2501   PT        0.238008    0.395144    0.538213     0.004505
PT2502   PT        0.271034    0.360302    0.537132     0.004505
PT2503   PT        0.271709    0.395100    0.501276     0.004505
AU2504   AU        0.304089    0.360749    0.501253     0.007504
PT2505   PT        0.302959    0.394218    0.537581     0.004505
PT2506   PT        0.336678    0.359409    0.536388     0.004505
PT2507   PT        0.335448    0.395657    0.502811     0.004505
PT2508   PT        0.368365    0.358008    0.501220     0.004505
PT2509   PT        0.368307    0.395165    0.537169     0.004505
PT2510   PT        0.403642    0.358831    0.535423     0.004505
AU2511   AU        0.402827    0.395488    0.501991     0.007504
PT2512   PT        0.436191    0.359013    0.501094     0.004505
AU2513   AU        0.435055    0.394030    0.536783     0.007504
PT2514   PT        0.467126    0.359090    0.537932     0.004505
AU2515   AU        0.465860    0.394098    0.501089     0.007504
PT2516   PT        0.501366    0.360402    0.501847     0.004505
AU2517   AU        0.501916    0.394993    0.537715     0.007504
AU2518   AU        0.532689    0.358895    0.537466     0.007504
PT2519   PT        0.533825    0.394103    0.502075     0.004505
PT2520   PT        0.565477    0.358355    0.502846     0.004505
PT2521   PT        0.566825    0.394369    0.536853     0.004505
PT2522   PT        0.599137    0.360168    0.537901     0.004505
PT2523   PT        0.599755    0.394130    0.501978     0.004505
AU2524   AU        0.631546    0.359107    0.500873     0.007504
PT2525   PT        0.632055    0.395853    0.535677     0.004505
PT2526   PT        0.664966    0.358806    0.537304     0.004505
PT2527   PT        0.663713    0.395018    0.500511     0.004505
AU2528   AU        0.697791    0.360227    0.500660     0.007504
AU2529   AU        0.697147    0.395417    0.536987     0.007504
AU2530   AU        0.731380    0.359580    0.534838     0.007504
PT2531   PT        0.731080    0.395447    0.500291     0.004505
AU2532   AU        0.767752    0.359487    0.498120     0.007504
PT2533   PT        0.767801    0.394769    0.534007     0.004505
AU2534   AU        0.802512    0.353928    0.533328     0.007504
PT2535   PT        0.799850    0.396297    0.500601     0.004505
AU2536   AU        0.037645    0.388610    0.538830     0.007504
PT2537   PT        0.072541    0.426824    0.535502     0.004505
AU2538   AU        0.072736    0.465944    0.500479     0.007504
PT2539   PT        0.105831    0.428693    0.502640     0.004505
PT2540   PT        0.106270    0.462120    0.537862     0.004505
PT2541   PT        0.140266    0.428706    0.536126     0.004505
PT2542   PT        0.140191    0.463588    0.501551     0.004505
PT2543   PT        0.173561    0.429511    0.501056     0.004505
AU2544   AU        0.173503    0.464101    0.536367     0.007504
AU2545   AU        0.205222    0.428969    0.536580     0.007504
PT2546   PT        0.206281    0.464905    0.501268     0.004505
PT2547   PT        0.236989    0.429267    0.501880     0.004505
PT2548   PT        0.238558    0.463823    0.536341     0.004505
PT2549   PT        0.270670    0.429435    0.536358     0.004505
PT2550   PT        0.270045    0.465327    0.501527     0.004505
PT2551   PT        0.303292    0.430708    0.500693     0.004505
PT2552   PT        0.304306    0.464063    0.535501     0.004505
PT2553   PT        0.336876    0.430871    0.537539     0.004505
PT2554   PT        0.335294    0.465565    0.500622     0.004505
AU2555   AU        0.370344    0.430343    0.502523     0.007504
AU2556   AU        0.368985    0.463907    0.536028     0.007504
PT2557   PT        0.401542    0.429732    0.534722     0.004505
PT2558   PT        0.400819    0.466630    0.500693     0.004505
PT2559   PT        0.435165    0.429224    0.502201     0.004505
PT2560   PT        0.434024    0.463317    0.536920     0.004505
PT2561   PT        0.468751    0.427663    0.537123     0.004505
PT2562   PT        0.466887    0.463207    0.501740     0.004505
PT2563   PT        0.499546    0.427279    0.501520     0.004505
PT2564   PT        0.500335    0.464364    0.538393     0.004505
AU2565   AU        0.534329    0.430225    0.537918     0.007504
PT2566   PT        0.534073    0.466251    0.501879     0.004505
PT2567   PT        0.566846    0.431141    0.502336     0.004505
PT2568   PT        0.567155    0.465877    0.536761     0.004505
PT2569   PT        0.598934    0.430228    0.539227     0.004505
AU2570   AU        0.598980    0.464028    0.503031     0.007504
PT2571   PT        0.633462    0.431774    0.500698     0.004505
AU2572   AU        0.631374    0.465072    0.537970     0.007504
AU2573   AU        0.664090    0.432049    0.537458     0.007504
AU2574   AU        0.665578    0.465519    0.500848     0.007504
AU2575   AU        0.699751    0.430323    0.502612     0.007504
AU2576   AU        0.697518    0.464235    0.538284     0.007504
PT2577   PT        0.729327    0.430097    0.538363     0.004505
AU2578   AU        0.729795    0.466497    0.502501     0.007504
AU2579   AU        0.764854    0.431007    0.500665     0.007504
AU2580   AU        0.764179    0.464684    0.537462     0.007504
AU2581   AU        0.798909    0.430284    0.534966     0.007504
PT2582   PT        0.798037    0.467052    0.499765     0.004505
AU2583   AU        0.837405    0.437670    0.497757     0.007504
PT2584   PT        0.075020    0.498184    0.536793     0.004505
AU2585   AU        0.072159    0.533243    0.500246     0.007504
AU2586   AU        0.108232    0.498093    0.501912     0.007504
AU2587   AU        0.105235    0.535845    0.537379     0.007504
AU2588   AU        0.139463    0.499274    0.536575     0.007504
PT2589   PT        0.140569    0.534355    0.503916     0.004505
PT2590   PT        0.171521    0.500068    0.500574     0.004505
AU2591   AU        0.174607    0.534515    0.534733     0.007504
AU2592   AU        0.204660    0.500741    0.536231     0.007504
AU2593   AU        0.204403    0.536206    0.500651     0.007504
PT2594   PT        0.238834    0.500664    0.500552     0.004505
AU2595   AU        0.239053    0.534141    0.536712     0.007504
PT2596   PT        0.271292    0.499120    0.536462     0.004505
AU2597   AU        0.270849    0.534341    0.500568     0.007504
AU2598   AU        0.303698    0.500059    0.500549     0.007504
AU2599   AU        0.305479    0.535468    0.535963     0.007504
PT2600   PT        0.335944    0.499546    0.536686     0.004505
AU2601   AU        0.336822    0.536457    0.501664     0.007504
PT2602   PT        0.367743    0.500278    0.502283     0.004505
AU2603   AU        0.368350    0.535878    0.535701     0.007504
PT2604   PT        0.403217    0.500294    0.535622     0.004505
PT2605   PT        0.402295    0.534799    0.502023     0.004505
AU2606   AU        0.434496    0.501582    0.500833     0.007504
PT2607   PT        0.435468    0.534844    0.536678     0.004505
PT2608   PT        0.467046    0.499167    0.536263     0.004505
AU2609   AU        0.468542    0.535027    0.501054     0.007504
PT2610   PT        0.501080    0.498634    0.501147     0.004505
AU2611   AU        0.501199    0.533200    0.535742     0.007504
PT2612   PT        0.534662    0.500646    0.535665     0.004505
AU2613   AU        0.533534    0.533502    0.502347     0.007504
PT2614   PT        0.567222    0.500559    0.500818     0.004505
PT2615   PT        0.566603    0.535760    0.536450     0.004505
PT2616   PT        0.599220    0.499672    0.534853     0.004505
AU2617   AU        0.599196    0.536286    0.500154     0.007504
PT2618   PT        0.633480    0.499889    0.500892     0.004505
PT2619   PT        0.631387    0.534225    0.536473     0.004505
PT2620   PT        0.665398    0.498726    0.536170     0.004505
PT2621   PT        0.664423    0.533672    0.500717     0.004505
AU2622   AU        0.696991    0.500209    0.502455     0.007504
AU2623   AU        0.695879    0.535106    0.537059     0.007504
AU2624   AU        0.728968    0.500043    0.537874     0.007504
AU2625   AU        0.730826    0.536472    0.501311     0.007504
AU2626   AU        0.764560    0.501138    0.501016     0.007504
AU2627   AU        0.762651    0.534542    0.536207     0.007504
PT2628   PT        0.798132    0.498572    0.540602     0.004505
PT2629   PT        0.800264    0.534903    0.503083     0.004505
PT2630   PT        0.070393    0.570292    0.532677     0.004505
PT2631   PT        0.036492    0.617960    0.503703     0.004505
AU2632   AU        0.106637    0.570572    0.502943     0.007504
PT2633   PT        0.102159    0.605922    0.539761     0.004505
AU2634   AU        0.141383    0.570438    0.536578     0.007504
AU2635   AU        0.139176    0.606091    0.500606     0.007504
PT2636   PT        0.173006    0.569253    0.501455     0.004505
PT2637   PT        0.171651    0.605994    0.534648     0.004505
PT2638   PT        0.206134    0.568932    0.536024     0.004505
PT2639   PT        0.204929    0.603335    0.501211     0.004505
PT2640   PT        0.238937    0.569475    0.501969     0.004505
PT2641   PT        0.239258    0.603649    0.536513     0.004505
PT2642   PT        0.271060    0.570002    0.534499     0.004505
AU2643   AU        0.269970    0.604578    0.500653     0.007504
PT2644   PT        0.305346    0.570759    0.500091     0.004505
AU2645   AU        0.304606    0.603998    0.535411     0.007504
PT2646   PT        0.337089    0.571273    0.534558     0.004505
PT2647   PT        0.337489    0.604820    0.501245     0.004505
PT2648   PT        0.369472    0.571349    0.500925     0.004505
AU2649   AU        0.369290    0.604564    0.536887     0.007504
PT2650   PT        0.401992    0.570295    0.536938     0.004505
PT2651   PT        0.401710    0.603409    0.500143     0.004505
PT2652   PT        0.433460    0.569075    0.501131     0.004505
PT2653   PT        0.436219    0.604899    0.535773     0.004505
PT2654   PT        0.467709    0.570899    0.536606     0.004505
PT2655   PT        0.468332    0.605240    0.501194     0.004505
AU2656   AU        0.501039    0.571682    0.501246     0.007504
PT2657   PT        0.501217    0.603671    0.536188     0.004505
PT2658   PT        0.533829    0.570301    0.535346     0.004505
AU2659   AU        0.534173    0.605018    0.500693     0.007504
AU2660   AU        0.565136    0.568605    0.501721     0.007504
AU2661   AU        0.566607    0.604944    0.537164     0.007504
PT2662   PT        0.598325    0.569710    0.536803     0.004505
PT2663   PT        0.599353    0.603862    0.502357     0.004505
PT2664   PT        0.633511    0.570279    0.501470     0.004505
PT2665   PT        0.631637    0.603231    0.537779     0.004505
PT2666   PT        0.664804    0.568651    0.535857     0.004505
AU2667   AU        0.663194    0.605818    0.501246     0.007504
PT2668   PT        0.697468    0.569972    0.501228     0.004505
AU2669   AU        0.698860    0.606565    0.536529     0.007504
AU2670   AU        0.732000    0.572272    0.536662     0.007504
AU2671   AU        0.731167    0.608126    0.502133     0.007504
AU2672   AU        0.767049    0.575681    0.501814     0.007504
AU2673   AU        0.766069    0.606901    0.536910     0.007504
AU2674   AU        0.801720    0.575770    0.538348     0.007504
AU2675   AU        0.801939    0.606994    0.502605     0.007504
PT2676   PT        0.102111    0.638405    0.500897     0.004505
AU2677   AU        0.137342    0.642760    0.534983     0.007504
AU2678   AU        0.138028    0.676206    0.498071     0.007504
AU2679   AU        0.172042    0.639650    0.501420     0.007504
AU2680   AU        0.173585    0.673993    0.535559     0.007504
PT2681   PT        0.206169    0.637594    0.534660     0.004505
PT2682   PT        0.207049    0.676718    0.500964     0.004505
PT2683   PT        0.238392    0.638320    0.501953     0.004505
AU2684   AU        0.239437    0.675178    0.535391     0.007504
PT2685   PT        0.272017    0.637994    0.535999     0.004505
PT2686   PT        0.271002    0.677411    0.501215     0.004505
PT2687   PT        0.304636    0.639806    0.500562     0.004505
PT2688   PT        0.302301    0.675519    0.535834     0.004505
PT2689   PT        0.336130    0.639085    0.534660     0.004505
AU2690   AU        0.336035    0.674918    0.501887     0.007504
PT2691   PT        0.369307    0.640429    0.501306     0.004505
PT2692   PT        0.370711    0.674545    0.534408     0.004505
PT2693   PT        0.401409    0.638092    0.538462     0.004505
PT2694   PT        0.403479    0.674479    0.502022     0.004505
AU2695   AU        0.434087    0.639871    0.500092     0.007504
PT2696   PT        0.434705    0.674502    0.536615     0.004505
PT2697   PT        0.467559    0.640465    0.538198     0.004505
AU2698   AU        0.468571    0.674539    0.501661     0.007504
AU2699   AU        0.499769    0.639067    0.501954     0.007504
PT2700   PT        0.499976    0.674174    0.535547     0.004505
PT2701   PT        0.531619    0.639487    0.536634     0.004505
PT2702   PT        0.533478    0.674646    0.501987     0.004505
AU2703   AU        0.564770    0.640411    0.502060     0.007504
PT2704   PT        0.565152    0.674778    0.535723     0.004505
PT2705   PT        0.600558    0.638900    0.537164     0.004505
PT2706   PT        0.599933    0.676279    0.501967     0.004505
AU2707   AU        0.631490    0.639940    0.500619     0.007504
PT2708   PT        0.631731    0.674405    0.536524     0.004505
AU2709   AU        0.665016    0.638321    0.536737     0.007504
AU2710   AU        0.664380    0.675933    0.502123     0.007504
PT2711   PT        0.694903    0.640018    0.500200     0.004505
AU2712   AU        0.698476    0.677333    0.534983     0.007504
PT2713   PT        0.732474    0.641882    0.536887     0.004505
AU2714   AU        0.734281    0.678392    0.500871     0.007504
AU2715   AU        0.767798    0.644999    0.501519     0.007504
AU2716   AU        0.171550    0.713063    0.500779     0.007504
PT2717   PT        0.204229    0.712729    0.534739     0.004505
AU2718   AU        0.205635    0.746744    0.499677     0.007504
AU2719   AU        0.238561    0.712034    0.501199     0.007504
AU2720   AU        0.239212    0.745898    0.536857     0.007504
AU2721   AU        0.270452    0.709593    0.536846     0.007504
PT2722   PT        0.272919    0.745476    0.501720     0.004505
AU2723   AU        0.304694    0.709724    0.501454     0.007504
AU2724   AU        0.304903    0.744464    0.538195     0.007504
AU2725   AU        0.336206    0.709472    0.536472     0.007504
PT2726   PT        0.336991    0.744086    0.500704     0.004505
PT2727   PT        0.369000    0.709637    0.502804     0.004505
PT2728   PT        0.368472    0.743294    0.537009     0.004505
AU2729   AU        0.402266    0.710180    0.536907     0.007504
PT2730   PT        0.402781    0.744279    0.502747     0.004505
PT2731   PT        0.434221    0.708514    0.500506     0.004505
PT2732   PT        0.434868    0.744900    0.538151     0.004505
AU2733   AU        0.467859    0.708414    0.537813     0.007504
PT2734   PT        0.468755    0.744252    0.501566     0.004505
PT2735   PT        0.499808    0.709587    0.502922     0.004505
AU2736   AU        0.500070    0.745154    0.537473     0.007504
AU2737   AU        0.532254    0.711391    0.537727     0.007504
PT2738   PT        0.533351    0.743604    0.502604     0.004505
PT2739   PT        0.566085    0.707947    0.501532     0.004505
PT2740   PT        0.564987    0.744551    0.535879     0.004505
AU2741   AU        0.597579    0.709708    0.535703     0.007504
AU2742   AU        0.597837    0.746169    0.500503     0.007504
PT2743   PT        0.631964    0.712069    0.501098     0.004505
AU2744   AU        0.630440    0.744820    0.536824     0.007504
AU2745   AU        0.663787    0.709207    0.536727     0.007504
PT2746   PT        0.664917    0.745099    0.501874     0.004505
AU2747   AU        0.699459    0.713381    0.501359     0.007504
PT2748   PT        0.240177    0.779924    0.501608     0.004505
PT2749   PT        0.272266    0.779264    0.539146     0.004505
AU2750   AU        0.273641    0.818390    0.502636     0.007504
PT2751   PT        0.304691    0.779825    0.503015     0.004505
PT2752   PT        0.304533    0.815227    0.538839     0.004505
PT2753   PT        0.337039    0.780722    0.536606     0.004505
AU2754   AU        0.337778    0.813330    0.501266     0.007504
PT2755   PT        0.370889    0.778301    0.502464     0.004505
PT2756   PT        0.368221    0.817933    0.535435     0.004505
PT2757   PT        0.401334    0.780331    0.538926     0.004505
PT2758   PT        0.404222    0.820053    0.503162     0.004505
PT2759   PT        0.437133    0.781885    0.500724     0.004505
PT2760   PT        0.436775    0.815786    0.537752     0.004505
AU2761   AU        0.468511    0.778809    0.535864     0.007504
PT2762   PT        0.469398    0.822141    0.500211     0.004505
PT2763   PT        0.502344    0.782109    0.500918     0.004505
PT2764   PT        0.500241    0.815369    0.536056     0.004505
PT2765   PT        0.533102    0.779504    0.537180     0.004505
PT2766   PT        0.533748    0.820276    0.500156     0.004505
AU2767   AU        0.565653    0.780534    0.501867     0.007504
PT2768   PT        0.564304    0.813768    0.536544     0.004505
AU2769   AU        0.596573    0.778650    0.537209     0.007504
AU2770   AU        0.597531    0.817901    0.501938     0.007504
AU2771   AU        0.631850    0.782697    0.503173     0.007504
PT2772   PT        0.435108    0.857856    0.500724     0.004505
PT2773   PT        0.337189    0.036726    0.569478     0.004505
AU2774   AU        0.370109    0.036875    0.607520     0.007504
AU2775   AU        0.402299    0.039775    0.570191     0.007504
AU2776   AU        0.436808    0.040101    0.607836     0.007504
AU2777   AU        0.467293    0.040010    0.572376     0.007504
AU2778   AU        0.500068    0.039218    0.605901     0.007504
PT2779   PT        0.534177    0.040996    0.570264     0.004505
PT2780   PT        0.207588    0.114586    0.571253     0.004505
PT2781   PT        0.240437    0.106784    0.606147     0.004505
AU2782   AU        0.273584    0.075697    0.607144     0.007504
AU2783   AU        0.273663    0.111211    0.570732     0.007504
PT2784   PT        0.306443    0.075709    0.569925     0.004505
AU2785   AU        0.303508    0.112461    0.607252     0.007504
PT2786   PT        0.338387    0.073646    0.607009     0.004505
AU2787   AU        0.337526    0.112518    0.571389     0.007504
AU2788   AU        0.369553    0.076780    0.570080     0.007504
PT2789   PT        0.369491    0.112721    0.606167     0.004505
AU2790   AU        0.401711    0.074061    0.605882     0.007504
AU2791   AU        0.402835    0.114080    0.571408     0.007504
PT2792   PT        0.434014    0.081050    0.571054     0.004505
AU2793   AU        0.434433    0.112685    0.608003     0.007504
AU2794   AU        0.467914    0.077873    0.606684     0.007504
PT2795   PT        0.468267    0.113928    0.571951     0.004505
AU2796   AU        0.498711    0.076083    0.572963     0.007504
AU2797   AU        0.500619    0.112505    0.607185     0.007504
AU2798   AU        0.532367    0.074626    0.606203     0.007504
AU2799   AU        0.532157    0.112222    0.573210     0.007504
PT2800   PT        0.567642    0.074665    0.571387     0.004505
PT2801   PT        0.569087    0.113151    0.606512     0.004505
AU2802   AU        0.599885    0.073047    0.606356     0.007504
AU2803   AU        0.602633    0.109976    0.571932     0.007504
AU2804   AU        0.631229    0.109987    0.609647     0.007504
AU2805   AU        0.665957    0.111431    0.569731     0.007504
PT2806   PT        0.140758    0.182622    0.570431     0.004505
AU2807   AU        0.172554    0.148337    0.569221     0.007504
PT2808   PT        0.173173    0.181843    0.605759     0.004505
PT2809   PT        0.202599    0.146863    0.606529     0.004505
AU2810   AU        0.205752    0.183188    0.570739     0.007504
AU2811   AU        0.240049    0.147832    0.572062     0.007504
AU2812   AU        0.237693    0.184011    0.606628     0.007504
AU2813   AU        0.272506    0.146922    0.606285     0.007504
PT2814   PT        0.272038    0.184517    0.571734     0.004505
PT2815   PT        0.303998    0.148251    0.569610     0.004505
PT2816   PT        0.304380    0.181846    0.605826     0.004505
PT2817   PT        0.336277    0.148178    0.605937     0.004505
AU2818   AU        0.336171    0.185851    0.571809     0.007504
PT2819   PT        0.368098    0.150051    0.570797     0.004505
AU2820   AU        0.369436    0.183635    0.607940     0.007504
AU2821   AU        0.401394    0.147627    0.606602     0.007504
PT2822   PT        0.400522    0.184840    0.572213     0.004505
AU2823   AU        0.435494    0.150959    0.572189     0.007504
AU2824   AU        0.435576    0.182765    0.608671     0.007504
PT2825   PT        0.465927    0.147885    0.606693     0.004505
PT2826   PT        0.466728    0.183190    0.573572     0.004505
AU2827   AU        0.500866    0.148662    0.572916     0.007504
PT2828   PT        0.500439    0.184182    0.605949     0.004505
AU2829   AU        0.534940    0.149405    0.608938     0.007504
AU2830   AU        0.532519    0.182899    0.571709     0.007504
AU2831   AU        0.566471    0.149128    0.573190     0.007504
PT2832   PT        0.566792    0.185407    0.606897     0.004505
AU2833   AU        0.598125    0.148460    0.606963     0.007504
PT2834   PT        0.597747    0.184812    0.571370     0.004505
PT2835   PT        0.632371    0.151120    0.571703     0.004505
PT2836   PT        0.632550    0.181135    0.609026     0.004505
AU2837   AU        0.666672    0.144065    0.604430     0.007504
PT2838   PT        0.666614    0.183469    0.572060     0.004505
AU2839   AU        0.701348    0.144437    0.568387     0.007504
AU2840   AU        0.702030    0.180372    0.606772     0.007504
AU2841   AU        0.732368    0.184127    0.569972     0.007504
PT2842   PT        0.104220    0.247186    0.604097     0.004505
AU2843   AU        0.140390    0.216972    0.603921     0.007504
AU2844   AU        0.139417    0.253705    0.570015     0.007504
AU2845   AU        0.174470    0.217999    0.571185     0.007504
PT2846   PT        0.171631    0.253958    0.606528     0.004505
PT2847   PT        0.206865    0.219465    0.606040     0.004505
PT2848   PT        0.204432    0.254437    0.571196     0.004505
PT2849   PT        0.238247    0.217054    0.571857     0.004505
AU2850   AU        0.238848    0.253265    0.604715     0.007504
PT2851   PT        0.272598    0.218233    0.606510     0.004505
PT2852   PT        0.270589    0.254722    0.571688     0.004505
AU2853   AU        0.303050    0.219889    0.570561     0.007504
PT2854   PT        0.303491    0.254212    0.605019     0.004505
PT2855   PT        0.336912    0.219833    0.608115     0.004505
PT2856   PT        0.335957    0.254687    0.572871     0.004505
PT2857   PT        0.369224    0.220252    0.572406     0.004505
PT2858   PT        0.370456    0.253736    0.606542     0.004505
PT2859   PT        0.402391    0.217061    0.607254     0.004505
PT2860   PT        0.402189    0.254994    0.572040     0.004505
PT2861   PT        0.434275    0.218405    0.572534     0.004505
AU2862   AU        0.433449    0.254422    0.607304     0.007504
PT2863   PT        0.465960    0.218388    0.607979     0.004505
AU2864   AU        0.468475    0.254545    0.573200     0.007504
PT2865   PT        0.499895    0.220067    0.572653     0.004505
PT2866   PT        0.499621    0.254071    0.608665     0.004505
AU2867   AU        0.532446    0.218725    0.606386     0.007504
PT2868   PT        0.532703    0.254624    0.573006     0.004505
PT2869   PT        0.564862    0.219836    0.573404     0.004505
AU2870   AU        0.565964    0.253736    0.607187     0.007504
PT2871   PT        0.600125    0.221047    0.606534     0.004505
AU2872   AU        0.600243    0.253988    0.571922     0.007504
PT2873   PT        0.632240    0.217876    0.571938     0.004505
AU2874   AU        0.632386    0.255341    0.606732     0.007504
AU2875   AU        0.666949    0.217466    0.607707     0.007504
PT2876   PT        0.663807    0.254825    0.572708     0.004505
PT2877   PT        0.698350    0.219718    0.568854     0.004505
AU2878   AU        0.701877    0.257258    0.609157     0.007504
PT2879   PT        0.730087    0.218826    0.607621     0.004505
PT2880   PT        0.731682    0.256394    0.571443     0.004505
PT2881   PT        0.766503    0.248669    0.605751     0.004505
AU2882   AU        0.071430    0.323021    0.571948     0.007504
AU2883   AU        0.105310    0.286745    0.573153     0.007504
AU2884   AU        0.105383    0.323117    0.607508     0.007504
PT2885   PT        0.137211    0.288476    0.606411     0.004505
PT2886   PT        0.137843    0.323536    0.570224     0.004505
AU2887   AU        0.171857    0.290314    0.570097     0.007504
PT2888   PT        0.170852    0.324955    0.605615     0.004505
PT2889   PT        0.206217    0.289356    0.605710     0.004505
AU2890   AU        0.206020    0.325319    0.572382     0.007504
PT2891   PT        0.237540    0.289561    0.571551     0.004505
PT2892   PT        0.238437    0.324129    0.606273     0.004505
PT2893   PT        0.271780    0.289889    0.606244     0.004505
PT2894   PT        0.272835    0.325864    0.571962     0.004505
PT2895   PT        0.304363    0.289590    0.571924     0.004505
AU2896   AU        0.304580    0.324092    0.606056     0.007504
AU2897   AU        0.336126    0.288544    0.607561     0.007504
PT2898   PT        0.336865    0.324423    0.571103     0.004505
PT2899   PT        0.369606    0.289729    0.572409     0.004505
PT2900   PT        0.369422    0.323189    0.605941     0.004505
AU2901   AU        0.402261    0.288951    0.606301     0.007504
PT2902   PT        0.403261    0.323778    0.570884     0.004505
AU2903   AU        0.434457    0.287338    0.573175     0.007504
PT2904   PT        0.435122    0.324688    0.607551     0.004505
PT2905   PT        0.468598    0.290402    0.606420     0.004505
PT2906   PT        0.466337    0.323974    0.572015     0.004505
PT2907   PT        0.501198    0.291553    0.573439     0.004505
AU2908   AU        0.500447    0.324535    0.608902     0.007504
AU2909   AU        0.533120    0.289220    0.607281     0.007504
PT2910   PT        0.532296    0.325627    0.572554     0.004505
AU2911   AU        0.565796    0.290480    0.574407     0.007504
AU2912   AU        0.567291    0.324007    0.607836     0.007504
PT2913   PT        0.601171    0.288677    0.607880     0.004505
PT2914   PT        0.598494    0.323015    0.572397     0.004505
AU2915   AU        0.633741    0.290638    0.571068     0.007504
AU2916   AU        0.631141    0.325357    0.608255     0.007504
PT2917   PT        0.664593    0.288312    0.608043     0.004505
AU2918   AU        0.664854    0.324975    0.574249     0.007504
AU2919   AU        0.697209    0.289190    0.571677     0.007504
AU2920   AU        0.699662    0.322539    0.606978     0.007504
AU2921   AU        0.738683    0.291906    0.607778     0.007504
PT2922   PT        0.733241    0.326932    0.572674     0.004505
AU2923   AU        0.768809    0.290379    0.571373     0.007504
AU2924   AU        0.769104    0.326400    0.609820     0.007504
PT2925   PT        0.801712    0.323966    0.571916     0.004505
AU2926   AU        0.070916    0.360445    0.610671     0.007504
PT2927   PT        0.071071    0.395041    0.571796     0.004505
PT2928   PT        0.105773    0.359183    0.571356     0.004505
AU2929   AU        0.103018    0.393652    0.607179     0.007504
PT2930   PT        0.139533    0.359532    0.604385     0.004505
AU2931   AU        0.136938    0.393794    0.572593     0.007504
PT2932   PT        0.172194    0.358935    0.570335     0.004505
PT2933   PT        0.171384    0.395527    0.604857     0.004505
PT2934   PT        0.205090    0.360137    0.606298     0.004505
PT2935   PT        0.203444    0.394211    0.572090     0.004505
PT2936   PT        0.238156    0.359256    0.570836     0.004505
PT2937   PT        0.236797    0.394415    0.606916     0.004505
PT2938   PT        0.270170    0.360233    0.606011     0.004505
PT2939   PT        0.271413    0.394484    0.571247     0.004505
AU2940   AU        0.304105    0.359444    0.570825     0.007504
PT2941   PT        0.304003    0.393869    0.606353     0.004505
PT2942   PT        0.338156    0.358776    0.606415     0.004505
PT2943   PT        0.334734    0.394436    0.572362     0.004505
PT2944   PT        0.370229    0.359002    0.571742     0.004505
AU2945   AU        0.368906    0.394890    0.605054     0.007504
PT2946   PT        0.401566    0.359080    0.606045     0.004505
PT2947   PT        0.402687    0.394379    0.571739     0.004505
AU2948   AU        0.433792    0.359878    0.572350     0.007504
PT2949   PT        0.435856    0.393905    0.606238     0.004505
PT2950   PT        0.468047    0.358991    0.607806     0.004505
PT2951   PT        0.467419    0.394059    0.571752     0.004505
PT2952   PT        0.497934    0.360023    0.570157     0.004505
PT2953   PT        0.499017    0.394691    0.605729     0.004505
PT2954   PT        0.532714    0.359118    0.605947     0.004505
PT2955   PT        0.532408    0.394522    0.572420     0.004505
PT2956   PT        0.565125    0.358849    0.571059     0.004505
PT2957   PT        0.566216    0.394504    0.606965     0.004505
PT2958   PT        0.599774    0.360213    0.607120     0.004505
PT2959   PT        0.599596    0.395303    0.572949     0.004505
PT2960   PT        0.633457    0.358428    0.571300     0.004505
AU2961   AU        0.632377    0.395053    0.606938     0.007504
AU2962   AU        0.665945    0.361369    0.607941     0.007504
PT2963   PT        0.664506    0.395226    0.572714     0.004505
AU2964   AU        0.698688    0.361491    0.571020     0.007504
AU2965   AU        0.701500    0.395198    0.606293     0.007504
AU2966   AU        0.735313    0.361202    0.607556     0.007504
AU2967   AU        0.733216    0.395367    0.571746     0.007504
AU2968   AU        0.770552    0.360848    0.571210     0.007504
AU2969   AU        0.768562    0.395848    0.607163     0.007504
AU2970   AU        0.799512    0.361825    0.607736     0.007504
AU2971   AU        0.801917    0.397522    0.571773     0.007504
AU2972   AU        0.071533    0.429168    0.608557     0.007504
PT2973   PT        0.073032    0.463197    0.570664     0.004505
AU2974   AU        0.105542    0.428578    0.571970     0.007504
PT2975   PT        0.104460    0.463725    0.608010     0.004505
PT2976   PT        0.140279    0.429975    0.605049     0.004505
AU2977   AU        0.139512    0.462125    0.570527     0.007504
PT2978   PT        0.172955    0.430459    0.571640     0.004505
PT2979   PT        0.172790    0.463052    0.607136     0.004505
PT2980   PT        0.204469    0.430673    0.607583     0.004505
PT2981   PT        0.206330    0.464227    0.570789     0.004505
AU2982   AU        0.236594    0.430037    0.571450     0.007504
PT2983   PT        0.238894    0.464237    0.605973     0.004505
PT2984   PT        0.271714    0.429767    0.606796     0.004505
PT2985   PT        0.270084    0.463736    0.570659     0.004505
AU2986   AU        0.303432    0.430699    0.570352     0.007504
PT2987   PT        0.303552    0.463721    0.606444     0.004505
PT2988   PT        0.334810    0.428212    0.606738     0.004505
PT2989   PT        0.336807    0.465725    0.570622     0.004505
PT2990   PT        0.369127    0.429339    0.571478     0.004505
PT2991   PT        0.368059    0.465063    0.605650     0.004505
PT2992   PT        0.401921    0.430448    0.606540     0.004505
PT2993   PT        0.400577    0.464657    0.571281     0.004505
PT2994   PT        0.434654    0.428308    0.571162     0.004505
PT2995   PT        0.435217    0.465689    0.605675     0.004505
PT2996   PT        0.466744    0.430002    0.606561     0.004505
AU2997   AU        0.467056    0.464805    0.570661     0.007504
PT2998   PT        0.500342    0.429350    0.573541     0.004505
PT2999   PT        0.501029    0.464738    0.605025     0.004505
PT3000   PT        0.533342    0.429494    0.607513     0.004505
AU3001   AU        0.533726    0.465241    0.571637     0.007504
PT3002   PT        0.565070    0.429265    0.572529     0.004505
PT3003   PT        0.566058    0.466610    0.606417     0.004505
AU3004   AU        0.599204    0.429920    0.608575     0.007504
PT3005   PT        0.597685    0.464342    0.571523     0.004505
PT3006   PT        0.630605    0.430082    0.572787     0.004505
PT3007   PT        0.633480    0.464041    0.606708     0.004505
AU3008   AU        0.666221    0.427775    0.608567     0.007504
AU3009   AU        0.664037    0.464621    0.572541     0.007504
AU3010   AU        0.696664    0.430320    0.572778     0.007504
PT3011   PT        0.697747    0.463878    0.605474     0.004505
AU3012   AU        0.732941    0.431242    0.609054     0.007504
PT3013   PT        0.731559    0.465980    0.570573     0.004505
AU3014   AU        0.767706    0.430245    0.572729     0.007504
AU3015   AU        0.766878    0.464747    0.606606     0.007504
PT3016   PT        0.802928    0.434454    0.606162     0.004505
AU3017   AU        0.833910    0.463250    0.536693     0.007504
AU3018   AU        0.072072    0.500031    0.607448     0.007504
AU3019   AU        0.071442    0.536147    0.570057     0.007504
PT3020   PT        0.106175    0.499185    0.571826     0.004505
PT3021   PT        0.107057    0.532913    0.607729     0.004505
AU3022   AU        0.139461    0.497807    0.606717     0.007504
PT3023   PT        0.139772    0.533635    0.569878     0.004505
AU3024   AU        0.171565    0.498791    0.571812     0.007504
PT3025   PT        0.173417    0.535274    0.606038     0.004505
AU3026   AU        0.205669    0.499587    0.605493     0.007504
AU3027   AU        0.205181    0.533817    0.570972     0.007504
PT3028   PT        0.239321    0.498765    0.571832     0.004505
PT3029   PT        0.238841    0.535359    0.606931     0.004505
PT3030   PT        0.269818    0.499871    0.606179     0.004505
AU3031   AU        0.271826    0.533875    0.572225     0.007504
AU3032   AU        0.302701    0.500082    0.571449     0.007504
PT3033   PT        0.304561    0.534814    0.605757     0.004505
PT3034   PT        0.338471    0.500265    0.605859     0.004505
PT3035   PT        0.335681    0.534576    0.571952     0.004505
PT3036   PT        0.368287    0.500760    0.571177     0.004505
PT3037   PT        0.370204    0.534521    0.607202     0.004505
PT3038   PT        0.403123    0.498679    0.605185     0.004505
PT3039   PT        0.402006    0.533768    0.572101     0.004505
PT3040   PT        0.435357    0.499863    0.570352     0.004505
PT3041   PT        0.436063    0.534898    0.605228     0.004505
PT3042   PT        0.469567    0.500147    0.604501     0.004505
PT3043   PT        0.469905    0.535997    0.569956     0.004505
PT3044   PT        0.501002    0.497869    0.570641     0.004505
PT3045   PT        0.501427    0.535586    0.608321     0.004505
PT3046   PT        0.531798    0.500394    0.605479     0.004505
PT3047   PT        0.533406    0.535483    0.570605     0.004505
AU3048   AU        0.566424    0.500375    0.569311     0.007504
PT3049   PT        0.566608    0.536092    0.606735     0.004505
AU3050   AU        0.598492    0.500049    0.607725     0.007504
AU3051   AU        0.599633    0.535871    0.571849     0.007504
PT3052   PT        0.632353    0.500663    0.571061     0.004505
AU3053   AU        0.632057    0.536216    0.609147     0.007504
AU3054   AU        0.664012    0.500405    0.608023     0.007504
PT3055   PT        0.663349    0.534726    0.572184     0.004505
AU3056   AU        0.696412    0.501299    0.572414     0.007504
AU3057   AU        0.699158    0.534517    0.606915     0.007504
AU3058   AU        0.732188    0.500840    0.606015     0.007504
PT3059   PT        0.731281    0.535615    0.569728     0.004505
PT3060   PT        0.764750    0.501151    0.571721     0.004505
AU3061   AU        0.766186    0.535770    0.607303     0.007504
AU3062   AU        0.800993    0.501380    0.605478     0.007504
AU3063   AU        0.798171    0.536958    0.570352     0.007504
AU3064   AU        0.104752    0.568768    0.575794     0.007504
AU3065   AU        0.103472    0.604367    0.609124     0.007504
AU3066   AU        0.137967    0.569790    0.606688     0.007504
AU3067   AU        0.137864    0.605283    0.570971     0.007504
PT3068   PT        0.171919    0.570729    0.569721     0.004505
AU3069   AU        0.170421    0.603568    0.607920     0.007504
PT3070   PT        0.205856    0.571260    0.605149     0.004505
PT3071   PT        0.205218    0.605476    0.569616     0.004505
AU3072   AU        0.238541    0.568225    0.569537     0.007504
AU3073   AU        0.238167    0.605009    0.606902     0.007504
AU3074   AU        0.271656    0.570228    0.606343     0.007504
PT3075   PT        0.270309    0.604031    0.571066     0.004505
PT3076   PT        0.302605    0.569666    0.569811     0.004505
AU3077   AU        0.303478    0.602783    0.604997     0.007504
AU3078   AU        0.335500    0.569094    0.605337     0.007504
PT3079   PT        0.336935    0.604952    0.570750     0.004505
PT3080   PT        0.368538    0.568967    0.570728     0.004505
PT3081   PT        0.369052    0.604486    0.606427     0.004505
AU3082   AU        0.402372    0.569543    0.605772     0.007504
PT3083   PT        0.401589    0.603985    0.571347     0.004505
PT3084   PT        0.435899    0.570097    0.570912     0.004505
AU3085   AU        0.435892    0.603403    0.606060     0.007504
PT3086   PT        0.467269    0.569575    0.606315     0.004505
PT3087   PT        0.467297    0.604802    0.571149     0.004505
PT3088   PT        0.501465    0.571283    0.571655     0.004505
PT3089   PT        0.499368    0.604242    0.604739     0.004505
AU3090   AU        0.533343    0.568646    0.607759     0.007504
PT3091   PT        0.532772    0.605170    0.570179     0.004505
PT3092   PT        0.565888    0.569740    0.570003     0.004505
PT3093   PT        0.565923    0.604417    0.606153     0.004505
PT3094   PT        0.599958    0.570413    0.606398     0.004505
AU3095   AU        0.598599    0.605683    0.573177     0.007504
PT3096   PT        0.631264    0.570130    0.570369     0.004505
AU3097   AU        0.632844    0.602813    0.607075     0.007504
PT3098   PT        0.664024    0.569170    0.605191     0.004505
PT3099   PT        0.665147    0.602474    0.572529     0.004505
AU3100   AU        0.697399    0.569553    0.572326     0.007504
AU3101   AU        0.697026    0.605613    0.605201     0.007504
AU3102   AU        0.732818    0.570452    0.606627     0.007504
AU3103   AU        0.732669    0.606536    0.573803     0.007504
AU3104   AU        0.764671    0.569957    0.570785     0.007504
PT3105   PT        0.769913    0.603921    0.607417     0.004505
PT3106   PT        0.137163    0.640132    0.607855     0.004505
AU3107   AU        0.135304    0.675308    0.574471     0.007504
PT3108   PT        0.171161    0.638327    0.570857     0.004505
AU3109   AU        0.171308    0.675056    0.604749     0.007504
AU3110   AU        0.206258    0.640401    0.606517     0.007504
AU3111   AU        0.205853    0.674809    0.569481     0.007504
PT3112   PT        0.238854    0.639636    0.569716     0.004505
AU3113   AU        0.236872    0.676400    0.605829     0.007504
AU3114   AU        0.269640    0.639641    0.605626     0.007504
AU3115   AU        0.271363    0.676036    0.571325     0.007504
AU3116   AU        0.303312    0.639850    0.571255     0.007504
AU3117   AU        0.303022    0.675002    0.605035     0.007504
AU3118   AU        0.337764    0.638216    0.606056     0.007504
PT3119   PT        0.337707    0.673422    0.569434     0.004505
PT3120   PT        0.369303    0.638690    0.571503     0.004505
PT3121   PT        0.370651    0.673350    0.605103     0.004505
AU3122   AU        0.402345    0.638879    0.606545     0.007504
PT3123   PT        0.403679    0.674488    0.570824     0.004505
PT3124   PT        0.434441    0.640370    0.571879     0.004505
PT3125   PT        0.434832    0.674108    0.605809     0.004505
PT3126   PT        0.468812    0.639196    0.606383     0.004505
PT3127   PT        0.466901    0.673193    0.572827     0.004505
AU3128   AU        0.500893    0.640296    0.572241     0.007504
PT3129   PT        0.499743    0.675143    0.606766     0.004505
PT3130   PT        0.532560    0.639641    0.605604     0.004505
AU3131   AU        0.533942    0.673505    0.569800     0.007504
AU3132   AU        0.565127    0.639121    0.572286     0.007504
AU3133   AU        0.565251    0.675197    0.606403     0.007504
AU3134   AU        0.597114    0.640329    0.607869     0.007504
PT3135   PT        0.599435    0.674288    0.571462     0.004505
PT3136   PT        0.632478    0.639891    0.573159     0.004505
AU3137   AU        0.630245    0.674169    0.607403     0.007504
AU3138   AU        0.663770    0.640246    0.606422     0.007504
AU3139   AU        0.666501    0.676962    0.572560     0.007504
AU3140   AU        0.700815    0.643017    0.570075     0.007504
AU3141   AU        0.699287    0.676600    0.608336     0.007504
AU3142   AU        0.730408    0.641587    0.604237     0.007504
AU3143   AU        0.733435    0.680001    0.569720     0.007504
AU3144   AU        0.174019    0.750121    0.609043     0.007504
PT3145   PT        0.204176    0.711274    0.605004     0.004505
AU3146   AU        0.204204    0.746451    0.569399     0.007504
PT3147   PT        0.237900    0.709094    0.569580     0.004505
AU3148   AU        0.239578    0.748517    0.605897     0.007504
AU3149   AU        0.271524    0.709449    0.607552     0.007504
AU3150   AU        0.271466    0.743675    0.571011     0.007504
PT3151   PT        0.304901    0.709679    0.571458     0.004505
PT3152   PT        0.304936    0.744368    0.606641     0.004505
AU3153   AU        0.335912    0.709220    0.605569     0.007504
AU3154   AU        0.338137    0.744411    0.571708     0.007504
PT3155   PT        0.370088    0.708730    0.570572     0.004505
PT3156   PT        0.368775    0.747148    0.606569     0.004505
PT3157   PT        0.402485    0.707049    0.606791     0.004505
PT3158   PT        0.401710    0.743628    0.572266     0.004505
PT3159   PT        0.435597    0.707784    0.571674     0.004505
PT3160   PT        0.434785    0.742305    0.606593     0.004505
PT3161   PT        0.466497    0.708412    0.606795     0.004505
AU3162   AU        0.467764    0.744348    0.571467     0.007504
AU3163   AU        0.499976    0.709897    0.572099     0.007504
AU3164   AU        0.499288    0.742858    0.606422     0.007504
PT3165   PT        0.533002    0.709018    0.606214     0.004505
AU3166   AU        0.533704    0.743937    0.572086     0.007504
PT3167   PT        0.566850    0.708701    0.570583     0.004505
PT3168   PT        0.565540    0.745785    0.606393     0.004505
PT3169   PT        0.599327    0.712409    0.607004     0.004505
AU3170   AU        0.598733    0.744498    0.572995     0.007504
PT3171   PT        0.630946    0.708943    0.573264     0.004505
AU3172   AU        0.633934    0.747378    0.606019     0.007504
PT3173   PT        0.666656    0.714379    0.605834     0.004505
AU3174   AU        0.668109    0.750082    0.570724     0.007504
AU3175   AU        0.699960    0.715986    0.569818     0.007504
AU3176   AU        0.274810    0.783744    0.608446     0.007504
AU3177   AU        0.304610    0.779057    0.572160     0.007504
PT3178   PT        0.336135    0.780785    0.606297     0.004505
PT3179   PT        0.337079    0.814625    0.573558     0.004505
AU3180   AU        0.368911    0.780945    0.571192     0.007504
AU3181   AU        0.368298    0.818707    0.607031     0.007504
AU3182   AU        0.401186    0.779135    0.606663     0.007504
AU3183   AU        0.402198    0.817139    0.570292     0.007504
PT3184   PT        0.433407    0.780296    0.572650     0.004505
AU3185   AU        0.431784    0.818501    0.606455     0.007504
PT3186   PT        0.467622    0.779814    0.607834     0.004505
AU3187   AU        0.467157    0.811839    0.572557     0.007504
AU3188   AU        0.502060    0.779857    0.571374     0.007504
PT3189   PT        0.498651    0.813785    0.608849     0.004505
AU3190   AU        0.533703    0.779447    0.606925     0.007504
AU3191   AU        0.535522    0.815903    0.572902     0.007504
PT3192   PT        0.564272    0.778981    0.571010     0.004505
PT3193   PT        0.598143    0.785215    0.606698     0.004505
AU3194   AU        0.271256    0.107613    0.642216     0.007504
AU3195   AU        0.305609    0.108787    0.676573     0.007504
PT3196   PT        0.338232    0.110581    0.642125     0.004505
AU3197   AU        0.371528    0.075958    0.642655     0.007504
PT3198   PT        0.368482    0.109867    0.678703     0.004505
AU3199   AU        0.400889    0.072123    0.677648     0.007504
AU3200   AU        0.401181    0.111399    0.643242     0.007504
AU3201   AU        0.434816    0.075045    0.643099     0.007504
PT3202   PT        0.433839    0.110351    0.676979     0.004505
AU3203   AU        0.469507    0.069366    0.678692     0.007504
AU3204   AU        0.467361    0.110358    0.642575     0.007504
PT3205   PT        0.500203    0.075268    0.640024     0.004505
PT3206   PT        0.501189    0.108320    0.676462     0.004505
PT3207   PT        0.536698    0.111149    0.641170     0.004505
AU3208   AU        0.567015    0.106167    0.678830     0.007504
AU3209   AU        0.598200    0.106896    0.642660     0.007504
AU3210   AU        0.206340    0.184113    0.641890     0.007504
AU3211   AU        0.238406    0.146829    0.639743     0.007504
AU3212   AU        0.234981    0.179339    0.677203     0.007504
AU3213   AU        0.270420    0.145720    0.678574     0.007504
AU3214   AU        0.270115    0.183422    0.642269     0.007504
AU3215   AU        0.304854    0.144808    0.644795     0.007504
PT3216   PT        0.301872    0.183144    0.678946     0.004505
PT3217   PT        0.337458    0.148161    0.677779     0.004505
AU3218   AU        0.334326    0.183770    0.642616     0.007504
PT3219   PT        0.366989    0.148194    0.642032     0.004505
AU3220   AU        0.368843    0.184824    0.676608     0.007504
AU3221   AU        0.399110    0.148678    0.676809     0.007504
PT3222   PT        0.402460    0.183090    0.642060     0.004505
AU3223   AU        0.437012    0.145980    0.643729     0.007504
PT3224   PT        0.434555    0.183811    0.677317     0.004505
AU3225   AU        0.466821    0.145890    0.678771     0.007504
PT3226   PT        0.467163    0.182537    0.642107     0.004505
AU3227   AU        0.499763    0.147099    0.641142     0.007504
AU3228   AU        0.499318    0.182497    0.677723     0.007504
PT3229   PT        0.534382    0.146339    0.676321     0.004505
AU3230   AU        0.533339    0.183473    0.642540     0.007504
PT3231   PT        0.568729    0.143949    0.645269     0.004505
PT3232   PT        0.565210    0.179960    0.678177     0.004505
AU3233   AU        0.598222    0.144360    0.680338     0.007504
PT3234   PT        0.597464    0.180456    0.642290     0.004505
AU3235   AU        0.629596    0.146567    0.644787     0.007504
PT3236   PT        0.632611    0.183098    0.676063     0.004505
PT3237   PT        0.666967    0.181557    0.640672     0.004505
AU3238   AU        0.137068    0.253791    0.641387     0.007504
AU3239   AU        0.172731    0.218202    0.641487     0.007504
AU3240   AU        0.172868    0.253511    0.677951     0.007504
PT3241   PT        0.206238    0.218327    0.675456     0.004505
PT3242   PT        0.204947    0.255889    0.641445     0.004505
AU3243   AU        0.238441    0.221136    0.641138     0.007504
PT3244   PT        0.236184    0.255132    0.676885     0.004505
AU3245   AU        0.268625    0.218795    0.676013     0.007504
AU3246   AU        0.270760    0.254257    0.639705     0.007504
PT3247   PT        0.302524    0.218622    0.641158     0.004505
AU3248   AU        0.303192    0.253421    0.678179     0.007504
PT3249   PT        0.334601    0.219739    0.675271     0.004505
AU3250   AU        0.335456    0.254838    0.641420     0.007504
AU3251   AU        0.368371    0.218668    0.642408     0.007504
PT3252   PT        0.368713    0.254250    0.675583     0.004505
AU3253   AU        0.403966    0.219082    0.677105     0.007504
PT3254   PT        0.402128    0.253937    0.643973     0.004505
PT3255   PT        0.434645    0.218118    0.641772     0.004505
PT3256   PT        0.436137    0.253266    0.677232     0.004505
PT3257   PT        0.467469    0.221055    0.677207     0.004505
PT3258   PT        0.468057    0.254898    0.640820     0.004505
PT3259   PT        0.500066    0.218821    0.643704     0.004505
AU3260   AU        0.500377    0.256647    0.676720     0.007504
AU3261   AU        0.530913    0.218236    0.678728     0.007504
PT3262   PT        0.531983    0.253822    0.641302     0.004505
PT3263   PT        0.565825    0.219995    0.642123     0.004505
PT3264   PT        0.565765    0.254860    0.677086     0.004505
PT3265   PT        0.597422    0.218097    0.677856     0.004505
PT3266   PT        0.599056    0.253744    0.642540     0.004505
PT3267   PT        0.632695    0.218398    0.640126     0.004505
AU3268   AU        0.633360    0.252699    0.677907     0.007504
AU3269   AU        0.668072    0.217277    0.677787     0.007504
PT3270   PT        0.668660    0.255051    0.641006     0.004505
AU3271   AU        0.700176    0.217446    0.641375     0.007504
AU3272   AU        0.702938    0.221067    0.720774     0.007504
AU3273   AU        0.736532    0.254059    0.643434     0.007504
PT3274   PT        0.134675    0.285902    0.677036     0.004505
PT3275   PT        0.141363    0.325293    0.641867     0.004505
PT3276   PT        0.170970    0.289979    0.641945     0.004505
PT3277   PT        0.172109    0.324748    0.677279     0.004505
AU3278   AU        0.205665    0.289506    0.676022     0.007504
PT3279   PT        0.204603    0.323280    0.640323     0.004505
AU3280   AU        0.238793    0.288028    0.640443     0.007504
PT3281   PT        0.237813    0.325159    0.675327     0.004505
AU3282   AU        0.269948    0.287403    0.675796     0.007504
PT3283   PT        0.270351    0.325256    0.640309     0.004505
AU3284   AU        0.304087    0.288153    0.643648     0.007504
PT3285   PT        0.303685    0.325037    0.677308     0.004505
PT3286   PT        0.336467    0.288684    0.678545     0.004505
PT3287   PT        0.337802    0.324155    0.642753     0.004505
AU3288   AU        0.369566    0.287994    0.641413     0.007504
PT3289   PT        0.369051    0.324821    0.677023     0.004505
PT3290   PT        0.402221    0.289955    0.675633     0.004505
PT3291   PT        0.401345    0.324000    0.640415     0.004505
AU3292   AU        0.435012    0.288437    0.642223     0.007504
AU3293   AU        0.434190    0.324923    0.677304     0.007504
PT3294   PT        0.467204    0.289491    0.676030     0.004505
AU3295   AU        0.467719    0.324517    0.643198     0.007504
PT3296   PT        0.499984    0.289962    0.641642     0.004505
PT3297   PT        0.499941    0.324928    0.676484     0.004505
PT3298   PT        0.535209    0.291469    0.677873     0.004505
AU3299   AU        0.533188    0.324839    0.641599     0.007504
AU3300   AU        0.567138    0.288356    0.642846     0.007504
AU3301   AU        0.565806    0.321302    0.678691     0.007504
PT3302   PT        0.600558    0.288260    0.677201     0.004505
AU3303   AU        0.599033    0.324080    0.643092     0.007504
PT3304   PT        0.631646    0.288284    0.641957     0.004505
PT3305   PT        0.632871    0.324604    0.676567     0.004505
PT3306   PT        0.669160    0.290887    0.676174     0.004505
AU3307   AU        0.667654    0.323217    0.641061     0.007504
PT3308   PT        0.703364    0.291109    0.642811     0.004505
AU3309   AU        0.701507    0.326070    0.678532     0.007504
PT3310   PT        0.738332    0.292714    0.678502     0.004505
AU3311   AU        0.735165    0.328507    0.643125     0.007504
AU3312   AU        0.106290    0.357653    0.641776     0.007504
PT3313   PT        0.105571    0.394690    0.678763     0.004505
PT3314   PT        0.139932    0.359046    0.677527     0.004505
PT3315   PT        0.139223    0.395419    0.642765     0.004505
PT3316   PT        0.172598    0.359955    0.640807     0.004505
PT3317   PT        0.172868    0.393563    0.679136     0.004505
PT3318   PT        0.205515    0.359163    0.674329     0.004505
PT3319   PT        0.205098    0.396801    0.641529     0.004505
PT3320   PT        0.239002    0.359028    0.641179     0.004505
AU3321   AU        0.237945    0.395030    0.675868     0.007504
AU3322   AU        0.269890    0.358879    0.676432     0.007504
PT3323   PT        0.272996    0.395087    0.641170     0.004505
PT3324   PT        0.304326    0.359755    0.641153     0.004505
PT3325   PT        0.303441    0.394490    0.676574     0.004505
AU3326   AU        0.337365    0.360034    0.676792     0.007504
AU3327   AU        0.337375    0.393475    0.640794     0.007504
PT3328   PT        0.369665    0.360661    0.640211     0.004505
PT3329   PT        0.368747    0.394763    0.675525     0.004505
AU3330   AU        0.401652    0.359521    0.675564     0.007504
PT3331   PT        0.402211    0.393648    0.640464     0.004505
AU3332   AU        0.435362    0.357822    0.641346     0.007504
PT3333   PT        0.433170    0.394627    0.675777     0.004505
PT3334   PT        0.467207    0.360748    0.675758     0.004505
PT3335   PT        0.466697    0.393269    0.641333     0.004505
AU3336   AU        0.500803    0.361112    0.642638     0.007504
PT3337   PT        0.500749    0.393875    0.678825     0.004505
AU3338   AU        0.531735    0.359017    0.678694     0.007504
PT3339   PT        0.532122    0.393643    0.643301     0.004505
AU3340   AU        0.565750    0.359297    0.643151     0.007504
AU3341   AU        0.564540    0.395480    0.676202     0.007504
PT3342   PT        0.598908    0.359801    0.678610     0.004505
AU3343   AU        0.600346    0.394737    0.642876     0.007504
PT3344   PT        0.632290    0.360655    0.642846     0.004505
AU3345   AU        0.632341    0.395523    0.678448     0.007504
PT3346   PT        0.665176    0.358816    0.676001     0.004505
PT3347   PT        0.665545    0.395005    0.642691     0.004505
AU3348   AU        0.698885    0.358590    0.641117     0.007504
AU3349   AU        0.699925    0.395300    0.677208     0.007504
AU3350   AU        0.732324    0.359682    0.683293     0.007504
AU3351   AU        0.733624    0.395761    0.645924     0.007504
AU3352   AU        0.766331    0.361254    0.645591     0.007504
PT3353   PT        0.767377    0.394287    0.680145     0.004505
PT3354   PT        0.104890    0.428518    0.642070     0.004505
PT3355   PT        0.105418    0.461368    0.679388     0.004505
PT3356   PT        0.140200    0.428493    0.677029     0.004505
AU3357   AU        0.140041    0.463855    0.642889     0.007504
AU3358   AU        0.171286    0.427907    0.640493     0.007504
AU3359   AU        0.172704    0.464918    0.676230     0.007504
PT3360   PT        0.204739    0.429118    0.676959     0.004505
AU3361   AU        0.204788    0.464141    0.641634     0.007504
PT3362   PT        0.238913    0.428468    0.640188     0.004505
PT3363   PT        0.238463    0.462392    0.676209     0.004505
PT3364   PT        0.271042    0.429919    0.676762     0.004505
AU3365   AU        0.269787    0.466131    0.643142     0.007504
PT3366   PT        0.303508    0.429792    0.641799     0.004505
PT3367   PT        0.304823    0.465974    0.676685     0.004505
AU3368   AU        0.336859    0.429950    0.676196     0.007504
PT3369   PT        0.335718    0.463839    0.640133     0.004505
PT3370   PT        0.369162    0.430748    0.641477     0.004505
AU3371   AU        0.369172    0.465382    0.676776     0.007504
PT3372   PT        0.401679    0.429399    0.677257     0.004505
AU3373   AU        0.401870    0.464913    0.641466     0.007504
PT3374   PT        0.434169    0.431059    0.641974     0.004505
PT3375   PT        0.435304    0.463823    0.675927     0.004505
AU3376   AU        0.468016    0.428862    0.676050     0.007504
PT3377   PT        0.467292    0.465995    0.640711     0.004505
PT3378   PT        0.499876    0.427468    0.643072     0.004505
AU3379   AU        0.499971    0.465331    0.677475     0.007504
PT3380   PT        0.531927    0.429550    0.677080     0.004505
PT3381   PT        0.532010    0.464825    0.641413     0.004505
AU3382   AU        0.566052    0.429967    0.641197     0.007504
PT3383   PT        0.566274    0.465685    0.675774     0.004505
AU3384   AU        0.599340    0.430656    0.677515     0.007504
PT3385   PT        0.598105    0.465712    0.642539     0.004505
AU3386   AU        0.632254    0.431353    0.642332     0.007504
AU3387   AU        0.631408    0.466109    0.677178     0.007504
PT3388   PT        0.665519    0.430891    0.678974     0.004505
AU3389   AU        0.666221    0.465981    0.641868     0.007504
PT3390   PT        0.696862    0.430303    0.643066     0.004505
AU3391   AU        0.698054    0.465315    0.676971     0.007504
AU3392   AU        0.732863    0.431446    0.678635     0.007504
PT3393   PT        0.731677    0.466310    0.643493     0.004505
PT3394   PT        0.766544    0.430117    0.643140     0.004505
AU3395   AU        0.762996    0.465901    0.676614     0.007504
PT3396   PT        0.105040    0.497627    0.641995     0.004505
AU3397   AU        0.136801    0.497114    0.677403     0.007504
AU3398   AU        0.100355    0.566951    0.641481     0.007504
AU3399   AU        0.172704    0.500165    0.642391     0.007504
PT3400   PT        0.171299    0.533039    0.678597     0.004505
AU3401   AU        0.205897    0.499800    0.676491     0.007504
AU3402   AU        0.205162    0.533109    0.641844     0.007504
AU3403   AU        0.238385    0.498430    0.640943     0.007504
PT3404   PT        0.238955    0.534410    0.677008     0.004505
PT3405   PT        0.271486    0.498400    0.677169     0.004505
PT3406   PT        0.269552    0.534253    0.642760     0.004505
PT3407   PT        0.304781    0.501409    0.641888     0.004505
PT3408   PT        0.304106    0.535434    0.675359     0.004505
PT3409   PT        0.336553    0.498907    0.677041     0.004505
AU3410   AU        0.337381    0.534609    0.641597     0.007504
PT3411   PT        0.369121    0.499156    0.640721     0.004505
PT3412   PT        0.370216    0.534288    0.676983     0.004505
PT3413   PT        0.401976    0.499394    0.675222     0.004505
PT3414   PT        0.402584    0.534390    0.640959     0.004505
PT3415   PT        0.435400    0.499651    0.640260     0.004505
PT3416   PT        0.435898    0.535106    0.674482     0.004505
PT3417   PT        0.466935    0.499846    0.676906     0.004505
PT3418   PT        0.467176    0.534697    0.639159     0.004505
AU3419   AU        0.499054    0.499006    0.640758     0.007504
PT3420   PT        0.501801    0.535245    0.676208     0.004505
PT3421   PT        0.532019    0.499705    0.675418     0.004505
PT3422   PT        0.534383    0.534561    0.641538     0.004505
AU3423   AU        0.564967    0.500645    0.642118     0.007504
PT3424   PT        0.565737    0.534856    0.676244     0.004505
PT3425   PT        0.597366    0.499922    0.674478     0.004505
PT3426   PT        0.598895    0.536122    0.643157     0.004505
AU3427   AU        0.632407    0.501385    0.642537     0.007504
AU3428   AU        0.632938    0.535518    0.677174     0.007504
PT3429   PT        0.664874    0.499071    0.676918     0.004505
PT3430   PT        0.666071    0.535065    0.641949     0.004505
AU3431   AU        0.700286    0.499245    0.641680     0.007504
AU3432   AU        0.697681    0.534959    0.675370     0.007504
AU3433   AU        0.731582    0.500940    0.677888     0.007504
AU3434   AU        0.732962    0.536359    0.642850     0.007504
PT3435   PT        0.766446    0.499630    0.642651     0.004505
AU3436   AU        0.138362    0.539511    0.711902     0.007504
AU3437   AU        0.138795    0.602699    0.644078     0.007504
PT3438   PT        0.172933    0.567571    0.641393     0.004505
AU3439   AU        0.174059    0.603079    0.676303     0.007504
PT3440   PT        0.204826    0.568556    0.673872     0.004505
AU3441   AU        0.203461    0.604604    0.640129     0.007504
AU3442   AU        0.238923    0.570521    0.640910     0.007504
AU3443   AU        0.238504    0.603005    0.675616     0.007504
PT3444   PT        0.272043    0.570373    0.675918     0.004505
AU3445   AU        0.270218    0.606093    0.639693     0.007504
PT3446   PT        0.303733    0.569658    0.641054     0.004505
AU3447   AU        0.302877    0.604242    0.675780     0.007504
AU3448   AU        0.337277    0.569608    0.676444     0.007504
AU3449   AU        0.336583    0.605036    0.641059     0.007504
PT3450   PT        0.367727    0.570402    0.639845     0.004505
PT3451   PT        0.368935    0.604901    0.675192     0.004505
PT3452   PT        0.402503    0.569531    0.674764     0.004505
PT3453   PT        0.401597    0.604006    0.640629     0.004505
PT3454   PT        0.435797    0.569910    0.641850     0.004505
AU3455   AU        0.435620    0.605021    0.676615     0.007504
PT3456   PT        0.467537    0.569108    0.675094     0.004505
PT3457   PT        0.467525    0.604753    0.641326     0.004505
PT3458   PT        0.499356    0.571495    0.640882     0.004505
PT3459   PT        0.500054    0.605356    0.676387     0.004505
PT3460   PT        0.532134    0.570627    0.676774     0.004505
PT3461   PT        0.534003    0.605302    0.640139     0.004505
PT3462   PT        0.566644    0.570661    0.643062     0.004505
AU3463   AU        0.566820    0.604412    0.678434     0.007504
AU3464   AU        0.599277    0.569577    0.678024     0.007504
AU3465   AU        0.600155    0.606445    0.642672     0.007504
AU3466   AU        0.632183    0.569653    0.643586     0.007504
AU3467   AU        0.631567    0.605018    0.676485     0.007504
AU3468   AU        0.666639    0.571154    0.677295     0.007504
PT3469   PT        0.663393    0.604813    0.641623     0.004505
PT3470   PT        0.696612    0.570952    0.639398     0.004505
PT3471   PT        0.697288    0.606296    0.676654     0.004505
PT3472   PT        0.729900    0.570208    0.678092     0.004505
AU3473   AU        0.730533    0.604285    0.639977     0.007504
AU3474   AU        0.172356    0.641905    0.643391     0.007504
PT3475   PT        0.206778    0.637546    0.676351     0.004505
AU3476   AU        0.203071    0.678542    0.642560     0.007504
PT3477   PT        0.238162    0.640689    0.640311     0.004505
AU3478   AU        0.238587    0.673936    0.676109     0.007504
PT3479   PT        0.269790    0.638736    0.675387     0.004505
AU3480   AU        0.272582    0.672423    0.640098     0.007504
PT3481   PT        0.303259    0.638176    0.640780     0.004505
AU3482   AU        0.303387    0.675116    0.676845     0.007504
PT3483   PT        0.336451    0.639822    0.676442     0.004505
AU3484   AU        0.336590    0.673569    0.641181     0.007504
PT3485   PT        0.369220    0.637913    0.641332     0.004505
PT3486   PT        0.368996    0.673390    0.675659     0.004505
AU3487   AU        0.400722    0.638567    0.674731     0.007504
PT3488   PT        0.402373    0.674905    0.641932     0.004505
PT3489   PT        0.434144    0.639252    0.640402     0.004505
PT3490   PT        0.433977    0.675394    0.677116     0.004505
AU3491   AU        0.467144    0.639026    0.674667     0.007504
PT3492   PT        0.466385    0.673698    0.641193     0.004505
PT3493   PT        0.500951    0.639959    0.640376     0.004505
AU3494   AU        0.500934    0.673891    0.675260     0.007504
AU3495   AU        0.533155    0.638743    0.675688     0.007504
AU3496   AU        0.532135    0.674121    0.640702     0.007504
AU3497   AU        0.565605    0.640874    0.643634     0.007504
PT3498   PT        0.566365    0.676208    0.675757     0.004505
PT3499   PT        0.599971    0.640975    0.678241     0.004505
AU3500   AU        0.599868    0.674813    0.642181     0.007504
PT3501   PT        0.631982    0.639041    0.640785     0.004505
AU3502   AU        0.630578    0.677120    0.677087     0.007504
AU3503   AU        0.663675    0.642346    0.677908     0.007504
AU3504   AU        0.663709    0.675719    0.640879     0.007504
PT3505   PT        0.695077    0.640029    0.640941     0.004505
PT3506   PT        0.238359    0.708268    0.641493     0.004505
PT3507   PT        0.269696    0.713775    0.675414     0.004505
PT3508   PT        0.269425    0.747977    0.641544     0.004505
AU3509   AU        0.304054    0.707530    0.642656     0.007504
AU3510   AU        0.304620    0.745975    0.676947     0.007504
AU3511   AU        0.337242    0.707252    0.675875     0.007504
AU3512   AU        0.336222    0.742792    0.641422     0.007504
PT3513   PT        0.369028    0.708105    0.640571     0.004505
PT3514   PT        0.368496    0.744142    0.676837     0.004505
AU3515   AU        0.401568    0.709637    0.677464     0.007504
AU3516   AU        0.403023    0.744184    0.643574     0.007504
PT3517   PT        0.434303    0.710063    0.642158     0.004505
AU3518   AU        0.435302    0.746361    0.678384     0.007504
AU3519   AU        0.466509    0.709263    0.676159     0.007504
AU3520   AU        0.467315    0.743453    0.641472     0.007504
AU3521   AU        0.499178    0.708617    0.640589     0.007504
AU3522   AU        0.499124    0.745855    0.676737     0.007504
AU3523   AU        0.533103    0.710888    0.677575     0.007504
AU3524   AU        0.531232    0.742550    0.642328     0.007504
AU3525   AU        0.565831    0.710811    0.641004     0.007504
AU3526   AU        0.562798    0.748361    0.679797     0.007504
PT3527   PT        0.600562    0.714083    0.675960     0.004505
PT3528   PT        0.599983    0.746606    0.642043     0.004505
PT3529   PT        0.633623    0.711987    0.640075     0.004505
AU3530   AU        0.369660    0.781150    0.642058     0.007504
PT3531   PT        0.401127    0.779539    0.677656     0.004505
PT3532   PT        0.435609    0.781850    0.642250     0.004505
PT3533   PT        0.470247    0.783865    0.677368     0.004505
AU3534   AU        0.499630    0.777880    0.641442     0.007504
PT3535   PT        0.403648    0.108898    0.715730     0.004505
PT3536   PT        0.469106    0.109424    0.710986     0.004505
PT3537   PT        0.265267    0.182409    0.714542     0.004505
AU3538   AU        0.305656    0.147228    0.713315     0.007504
AU3539   AU        0.299529    0.181859    0.747002     0.007504
AU3540   AU        0.337461    0.183830    0.712481     0.007504
AU3541   AU        0.366686    0.142834    0.715481     0.007504
PT3542   PT        0.366320    0.179314    0.749158     0.004505
AU3543   AU        0.400208    0.143638    0.750945     0.007504
AU3544   AU        0.398941    0.180087    0.715894     0.007504
PT3545   PT        0.433827    0.143285    0.713139     0.004505
AU3546   AU        0.434624    0.178474    0.749453     0.007504
AU3547   AU        0.501436    0.102927    0.747400     0.007504
AU3548   AU        0.468195    0.179739    0.713661     0.007504
PT3549   PT        0.501298    0.144171    0.713902     0.004505
AU3550   AU        0.502760    0.179057    0.748661     0.007504
PT3551   PT        0.531597    0.181275    0.711386     0.004505
AU3552   AU        0.564658    0.145542    0.712237     0.007504
AU3553   AU        0.567710    0.184006    0.747267     0.007504
PT3554   PT        0.600061    0.181541    0.712750     0.004505
AU3555   AU        0.203823    0.252209    0.712783     0.007504
PT3556   PT        0.237595    0.179958    0.753734     0.004505
PT3557   PT        0.237869    0.254672    0.751729     0.004505
AU3558   AU        0.271016    0.218409    0.750624     0.007504
PT3559   PT        0.269149    0.253788    0.711970     0.004505
AU3560   AU        0.301697    0.219600    0.710795     0.007504
PT3561   PT        0.304154    0.255413    0.746174     0.004505
PT3562   PT        0.335099    0.217334    0.746915     0.004505
AU3563   AU        0.335832    0.253426    0.712361     0.007504
PT3564   PT        0.368799    0.220126    0.709704     0.004505
AU3565   AU        0.370487    0.252619    0.747034     0.007504
AU3566   AU        0.401431    0.215941    0.748273     0.007504
PT3567   PT        0.401976    0.252455    0.712848     0.004505
AU3568   AU        0.436277    0.216355    0.715702     0.007504
AU3569   AU        0.436849    0.250236    0.751143     0.007504
AU3570   AU        0.470217    0.214297    0.749459     0.007504
AU3571   AU        0.467806    0.254072    0.714516     0.007504
AU3572   AU        0.500089    0.220127    0.713098     0.007504
PT3573   PT        0.501035    0.255566    0.747718     0.004505
AU3574   AU        0.531965    0.218901    0.746718     0.007504
AU3575   AU        0.533060    0.254567    0.712206     0.007504
AU3576   AU        0.565048    0.217529    0.710954     0.007504
AU3577   AU        0.568741    0.250006    0.748518     0.007504
AU3578   AU        0.603231    0.216924    0.749198     0.007504
AU3579   AU        0.600365    0.253192    0.709707     0.007504
AU3580   AU        0.634681    0.217149    0.710931     0.007504
AU3581   AU        0.631936    0.253862    0.744719     0.007504
PT3582   PT        0.668197    0.254349    0.711467     0.004505
AU3583   AU        0.172434    0.289127    0.716583     0.007504
AU3584   AU        0.204936    0.289534    0.751859     0.007504
PT3585   PT        0.205769    0.325666    0.712587     0.004505
AU3586   AU        0.234167    0.288156    0.714488     0.007504
AU3587   AU        0.239471    0.323328    0.747242     0.007504
AU3588   AU        0.271551    0.288157    0.747384     0.007504
AU3589   AU        0.272580    0.323286    0.712322     0.007504
PT3590   PT        0.305539    0.289629    0.711794     0.004505
AU3591   AU        0.304942    0.322503    0.749290     0.007504
PT3592   PT        0.337340    0.289709    0.747149     0.004505
PT3593   PT        0.336935    0.325168    0.710119     0.004505
PT3594   PT        0.369655    0.289663    0.712302     0.004505
AU3595   AU        0.367842    0.325559    0.745212     0.007504
PT3596   PT        0.402894    0.288695    0.745939     0.004505
AU3597   AU        0.402186    0.325544    0.712398     0.007504
AU3598   AU        0.433883    0.288705    0.711915     0.007504
AU3599   AU        0.435663    0.324603    0.750231     0.007504
PT3600   PT        0.465926    0.291304    0.748267     0.004505
PT3601   PT        0.465309    0.324338    0.711663     0.004505
PT3602   PT        0.500165    0.290348    0.711205     0.004505
AU3603   AU        0.503072    0.323523    0.748315     0.007504
AU3604   AU        0.533944    0.289224    0.749564     0.007504
AU3605   AU        0.534178    0.322657    0.713605     0.007504
PT3606   PT        0.566338    0.287419    0.714050     0.004505
PT3607   PT        0.567697    0.326105    0.748361     0.004505
PT3608   PT        0.604134    0.248341    0.785575     0.004505
PT3609   PT        0.600598    0.325106    0.710787     0.004505
PT3610   PT        0.635982    0.289617    0.711396     0.004505
AU3611   AU        0.634207    0.323412    0.749368     0.007504
PT3612   PT        0.668184    0.285801    0.750370     0.004505
AU3613   AU        0.669630    0.325875    0.714785     0.007504
PT3614   PT        0.704200    0.289609    0.711752     0.004505
AU3615   AU        0.135095    0.394062    0.715752     0.007504
PT3616   PT        0.167931    0.354711    0.717139     0.004505
PT3617   PT        0.173205    0.394093    0.745568     0.004505
AU3618   AU        0.204984    0.356687    0.750935     0.007504
AU3619   AU        0.205996    0.391247    0.712036     0.007504
AU3620   AU        0.240133    0.359327    0.711990     0.007504
AU3621   AU        0.240084    0.393731    0.747880     0.007504
AU3622   AU        0.273498    0.357643    0.747907     0.007504
AU3623   AU        0.269586    0.393384    0.710612     0.007504
PT3624   PT        0.304735    0.359593    0.709933     0.004505
PT3625   PT        0.302290    0.393995    0.745990     0.004505
PT3626   PT        0.336040    0.359348    0.745332     0.004505
PT3627   PT        0.335209    0.392523    0.711954     0.004505
PT3628   PT        0.369974    0.359989    0.710817     0.004505
PT3629   PT        0.369769    0.394536    0.746201     0.004505
PT3630   PT        0.402538    0.359760    0.747696     0.004505
PT3631   PT        0.402864    0.394955    0.710100     0.004505
PT3632   PT        0.434896    0.359516    0.712895     0.004505
AU3633   AU        0.433998    0.396139    0.746240     0.007504
AU3634   AU        0.465861    0.360631    0.747619     0.007504
AU3635   AU        0.466753    0.395137    0.711682     0.007504
PT3636   PT        0.500658    0.356695    0.713621     0.004505
PT3637   PT        0.500620    0.393403    0.746426     0.004505
AU3638   AU        0.532660    0.359407    0.746983     0.007504
PT3639   PT        0.534274    0.396426    0.714205     0.004505
PT3640   PT        0.566307    0.359908    0.711655     0.004505
PT3641   PT        0.567803    0.392934    0.749136     0.004505
AU3642   AU        0.601067    0.361676    0.746604     0.007504
AU3643   AU        0.599794    0.396801    0.713288     0.007504
PT3644   PT        0.632988    0.361934    0.713616     0.004505
PT3645   PT        0.634187    0.394787    0.750458     0.004505
PT3646   PT        0.667766    0.361984    0.748241     0.004505
PT3647   PT        0.665510    0.396809    0.713383     0.004505
PT3648   PT        0.700635    0.364091    0.714666     0.004505
PT3649   PT        0.702621    0.396883    0.750775     0.004505
AU3650   AU        0.733945    0.398458    0.715333     0.007504
AU3651   AU        0.137927    0.463619    0.713368     0.007504
AU3652   AU        0.171165    0.430239    0.711048     0.007504
PT3653   PT        0.171621    0.462191    0.751586     0.004505
AU3654   AU        0.204844    0.428900    0.749928     0.007504
AU3655   AU        0.204018    0.462976    0.713037     0.007504
AU3656   AU        0.239531    0.429774    0.712725     0.007504
PT3657   PT        0.237447    0.464393    0.749158     0.004505
AU3658   AU        0.270996    0.429820    0.745011     0.007504
AU3659   AU        0.272146    0.467014    0.711954     0.007504
AU3660   AU        0.303342    0.429952    0.710902     0.007504
AU3661   AU        0.304812    0.464622    0.744852     0.007504
PT3662   PT        0.335724    0.429490    0.747201     0.004505
PT3663   PT        0.336426    0.465191    0.711104     0.004505
PT3664   PT        0.368592    0.430062    0.710942     0.004505
AU3665   AU        0.368113    0.465116    0.746441     0.007504
AU3666   AU        0.403707    0.431099    0.746000     0.007504
AU3667   AU        0.402808    0.465275    0.710711     0.007504
PT3668   PT        0.435552    0.429383    0.709215     0.004505
AU3669   AU        0.433974    0.464932    0.746053     0.007504
AU3670   AU        0.468289    0.429587    0.747368     0.007504
PT3671   PT        0.467195    0.464061    0.713963     0.004505
PT3672   PT        0.500153    0.430576    0.712454     0.004505
PT3673   PT        0.501183    0.465241    0.746858     0.004505
AU3674   AU        0.533472    0.427169    0.747641     0.007504
AU3675   AU        0.533134    0.465903    0.712086     0.007504
PT3676   PT        0.566391    0.429986    0.712318     0.004505
PT3677   PT        0.564815    0.464749    0.746908     0.004505
AU3678   AU        0.601291    0.429323    0.749421     0.007504
PT3679   PT        0.599467    0.465341    0.711331     0.004505
AU3680   AU        0.633576    0.430658    0.713015     0.007504
PT3681   PT        0.635255    0.467138    0.747011     0.004505
PT3682   PT        0.668801    0.430771    0.748796     0.004505
PT3683   PT        0.667028    0.465498    0.712351     0.004505
AU3684   AU        0.700652    0.430691    0.712733     0.007504
AU3685   AU        0.701040    0.465731    0.748379     0.007504
AU3686   AU        0.734799    0.467137    0.713617     0.007504
AU3687   AU        0.171321    0.496993    0.713866     0.007504
PT3688   PT        0.206443    0.499253    0.751325     0.004505
AU3689   AU        0.206143    0.534995    0.712424     0.007504
AU3690   AU        0.236618    0.497963    0.711744     0.007504
PT3691   PT        0.237897    0.535496    0.748123     0.004505
PT3692   PT        0.269049    0.497764    0.748447     0.004505
AU3693   AU        0.270262    0.534095    0.714677     0.007504
AU3694   AU        0.304522    0.500446    0.710790     0.007504
AU3695   AU        0.304189    0.534693    0.748397     0.007504
PT3696   PT        0.337684    0.501051    0.746681     0.004505
PT3697   PT        0.337067    0.533259    0.710843     0.004505
PT3698   PT        0.369283    0.499511    0.711758     0.004505
AU3699   AU        0.369815    0.534866    0.745455     0.007504
AU3700   AU        0.401245    0.500654    0.745404     0.007504
PT3701   PT        0.401860    0.533658    0.711836     0.004505
AU3702   AU        0.433537    0.500299    0.710478     0.007504
PT3703   PT        0.435041    0.536465    0.746754     0.004505
AU3704   AU        0.468639    0.500647    0.746563     0.007504
PT3705   PT        0.467121    0.533552    0.711349     0.004505
PT3706   PT        0.500714    0.498465    0.710167     0.004505
PT3707   PT        0.502043    0.534148    0.745704     0.004505
PT3708   PT        0.532242    0.499529    0.745760     0.004505
PT3709   PT        0.532810    0.532893    0.710884     0.004505
AU3710   AU        0.566360    0.499315    0.711104     0.007504
AU3711   AU        0.567487    0.535203    0.748942     0.007504
PT3712   PT        0.602334    0.500100    0.748009     0.004505
AU3713   AU        0.598137    0.535665    0.713301     0.007504
AU3714   AU        0.633262    0.501171    0.713076     0.007504
PT3715   PT        0.636437    0.537628    0.749593     0.004505
PT3716   PT        0.668182    0.502920    0.746908     0.004505
PT3717   PT        0.665640    0.534264    0.710288     0.004505
PT3718   PT        0.699824    0.499367    0.710723     0.004505
PT3719   PT        0.138401    0.570329    0.826990     0.004505
AU3720   AU        0.210499    0.584685    0.833520     0.007504
AU3721   AU        0.205277    0.604025    0.713146     0.007504
AU3722   AU        0.240076    0.570577    0.710894     0.007504
AU3723   AU        0.237489    0.602007    0.748839     0.007504
AU3724   AU        0.272073    0.573212    0.747247     0.007504
AU3725   AU        0.271451    0.605600    0.710862     0.007504
AU3726   AU        0.305075    0.570675    0.710853     0.007504
PT3727   PT        0.305527    0.605172    0.746226     0.004505
PT3728   PT        0.335322    0.569027    0.747816     0.004505
AU3729   AU        0.337392    0.604290    0.710811     0.007504
PT3730   PT        0.370249    0.569057    0.710238     0.004505
AU3731   AU        0.369041    0.602876    0.748334     0.007504
PT3732   PT        0.402685    0.572381    0.746560     0.004505
AU3733   AU        0.401596    0.605891    0.709263     0.007504
PT3734   PT        0.435298    0.569451    0.710475     0.004505
PT3735   PT        0.434665    0.603898    0.746130     0.004505
PT3736   PT        0.468391    0.571622    0.747699     0.004505
PT3737   PT        0.467558    0.604560    0.710787     0.004505
PT3738   PT        0.498970    0.569326    0.711028     0.004505
PT3739   PT        0.501925    0.602454    0.746521     0.004505
AU3740   AU        0.533531    0.569232    0.745222     0.007504
PT3741   PT        0.533254    0.603952    0.710560     0.004505
AU3742   AU        0.565256    0.569051    0.713282     0.007504
PT3743   PT        0.565561    0.605963    0.746268     0.004505
AU3744   AU        0.602837    0.573594    0.748800     0.007504
AU3745   AU        0.599672    0.606694    0.711806     0.007504
PT3746   PT        0.632569    0.571809    0.713439     0.004505
AU3747   AU        0.637135    0.609344    0.748183     0.007504
AU3748   AU        0.668696    0.573920    0.750578     0.007504
AU3749   AU        0.665200    0.606375    0.711205     0.007504
AU3750   AU        0.699357    0.570930    0.713405     0.007504
PT3751   PT        0.239615    0.638243    0.711714     0.004505
AU3752   AU        0.270522    0.639655    0.748599     0.007504
AU3753   AU        0.271539    0.673796    0.711166     0.007504
AU3754   AU        0.303140    0.640093    0.711443     0.007504
PT3755   PT        0.304950    0.677967    0.750262     0.004505
AU3756   AU        0.335745    0.640430    0.747577     0.007504
PT3757   PT        0.335012    0.675405    0.712813     0.004505
AU3758   AU        0.369893    0.638551    0.713260     0.007504
AU3759   AU        0.367890    0.677815    0.752155     0.007504
AU3760   AU        0.401731    0.638628    0.749106     0.007504
AU3761   AU        0.403235    0.673314    0.710572     0.007504
PT3762   PT        0.435543    0.637143    0.711028     0.004505
PT3763   PT        0.433639    0.674587    0.746177     0.004505
AU3764   AU        0.467520    0.641105    0.747305     0.007504
PT3765   PT        0.467535    0.673371    0.710184     0.004505
PT3766   PT        0.500565    0.637978    0.711391     0.004505
AU3767   AU        0.499748    0.676292    0.747679     0.007504
PT3768   PT        0.533723    0.639105    0.745772     0.004505
AU3769   AU        0.535314    0.677042    0.715907     0.007504
PT3770   PT        0.566477    0.640371    0.712878     0.004505
AU3771   AU        0.570689    0.678255    0.749448     0.007504
PT3772   PT        0.598493    0.641105    0.746001     0.004505
AU3773   AU        0.598788    0.677357    0.710826     0.007504
PT3774   PT        0.631199    0.640850    0.712742     0.004505
AU3775   AU        0.302308    0.712045    0.709905     0.007504
AU3776   AU        0.370797    0.709168    0.712493     0.007504
PT3777   PT        0.402950    0.710225    0.749793     0.004505
PT3778   PT        0.401533    0.744083    0.712308     0.004505
AU3779   AU        0.434195    0.708800    0.713371     0.007504
PT3780   PT        0.467347    0.711317    0.749661     0.004505
PT3781   PT        0.467761    0.744951    0.711592     0.004505
PT3782   PT        0.499166    0.708026    0.710241     0.004505
AU3783   AU        0.566739    0.712225    0.712296     0.007504
PT3784   PT        0.400518    0.180039    0.785561     0.004505
AU3785   AU        0.516323    0.162703    0.795357     0.007504
PT3786   PT        0.317631    0.209404    0.794174     0.004505
AU3787   AU        0.336466    0.255093    0.782409     0.007504
PT3788   PT        0.364744    0.216235    0.785902     0.004505
PT3789   PT        0.369907    0.252099    0.822318     0.004505
AU3790   AU        0.400407    0.251508    0.784252     0.007504
AU3791   AU        0.432377    0.214845    0.784354     0.007504
PT3792   PT        0.432137    0.248709    0.819487     0.004505
AU3793   AU        0.469630    0.248455    0.784725     0.007504
AU3794   AU        0.507079    0.215881    0.785738     0.007504
AU3795   AU        0.499739    0.250241    0.820754     0.007504
AU3796   AU        0.536844    0.254199    0.783136     0.007504
PT3797   PT        0.665694    0.284343    0.824620     0.004505
AU3798   AU        0.271005    0.322585    0.782787     0.007504
AU3799   AU        0.302243    0.288482    0.784975     0.007504
PT3800   PT        0.302048    0.323472    0.821484     0.004505
AU3801   AU        0.337602    0.286423    0.821464     0.007504
PT3802   PT        0.337834    0.323619    0.785353     0.004505
PT3803   PT        0.371411    0.289683    0.784234     0.004505
AU3804   AU        0.369102    0.323155    0.822963     0.007504
AU3805   AU        0.400413    0.288419    0.821432     0.007504
AU3806   AU        0.401306    0.323372    0.781154     0.007504
AU3807   AU        0.433120    0.288868    0.785968     0.007504
AU3808   AU        0.437594    0.318200    0.819881     0.007504
PT3809   PT        0.467828    0.283700    0.818933     0.004505
AU3810   AU        0.468481    0.324776    0.784091     0.007504
AU3811   AU        0.500430    0.288124    0.784650     0.007504
PT3812   PT        0.503774    0.324878    0.820217     0.004505
AU3813   AU        0.537996    0.285806    0.820936     0.007504
PT3814   PT        0.539226    0.325217    0.785540     0.004505
PT3815   PT        0.573399    0.286074    0.782528     0.004505
AU3816   AU        0.574858    0.330175    0.893322     0.007504
PT3817   PT        0.600393    0.328017    0.783951     0.004505
PT3818   PT        0.206542    0.392854    0.783444     0.004505
PT3819   PT        0.240998    0.359835    0.784205     0.004505
AU3820   AU        0.270101    0.359898    0.819889     0.007504
PT3821   PT        0.272315    0.394946    0.786137     0.004505
PT3822   PT        0.304310    0.359920    0.785757     0.004505
AU3823   AU        0.302904    0.396327    0.821450     0.007504
PT3824   PT        0.334201    0.358471    0.820922     0.004505
PT3825   PT        0.337021    0.393054    0.781341     0.004505
AU3826   AU        0.369758    0.358366    0.783913     0.007504
AU3827   AU        0.370090    0.394063    0.818149     0.007504
AU3828   AU        0.403289    0.356223    0.824290     0.007504
PT3829   PT        0.402044    0.394948    0.782581     0.004505
AU3830   AU        0.434092    0.358339    0.786405     0.007504
AU3831   AU        0.437287    0.394384    0.820464     0.007504
PT3832   PT        0.470675    0.360200    0.820255     0.004505
AU3833   AU        0.467046    0.394900    0.781482     0.007504
AU3834   AU        0.503044    0.360731    0.783393     0.007504
AU3835   AU        0.502401    0.397567    0.819456     0.007504
PT3836   PT        0.537434    0.361748    0.821685     0.004505
AU3837   AU        0.536054    0.394114    0.784185     0.007504
AU3838   AU        0.572225    0.362952    0.785121     0.007504
AU3839   AU        0.573084    0.396026    0.821559     0.007504
AU3840   AU        0.604420    0.359476    0.822016     0.007504
AU3841   AU        0.603722    0.397655    0.785599     0.007504
AU3842   AU        0.633300    0.359901    0.785826     0.007504
PT3843   PT        0.666229    0.395695    0.788254     0.004505
AU3844   AU        0.206129    0.464727    0.784156     0.007504
AU3845   AU        0.238058    0.427055    0.785114     0.007504
AU3846   AU        0.271270    0.430618    0.820856     0.007504
AU3847   AU        0.271877    0.463992    0.786522     0.007504
AU3848   AU        0.303419    0.428062    0.784366     0.007504
PT3849   PT        0.302978    0.466391    0.821114     0.004505
AU3850   AU        0.335740    0.429441    0.820472     0.007504
PT3851   PT        0.336584    0.462614    0.786018     0.004505
PT3852   PT        0.368787    0.428769    0.782263     0.004505
AU3853   AU        0.369862    0.463076    0.820280     0.007504
AU3854   AU        0.403283    0.429976    0.822696     0.007504
PT3855   PT        0.401708    0.463987    0.782105     0.004505
AU3856   AU        0.435264    0.427597    0.784827     0.007504
AU3857   AU        0.436128    0.463577    0.817540     0.007504
AU3858   AU        0.471044    0.429577    0.820922     0.007504
PT3859   PT        0.468123    0.465134    0.782149     0.004505
AU3860   AU        0.500149    0.428736    0.780098     0.007504
PT3861   PT        0.504015    0.464675    0.821085     0.004505
AU3862   AU        0.534607    0.430780    0.816547     0.007504
AU3863   AU        0.532185    0.465449    0.783989     0.007504
AU3864   AU        0.567062    0.431305    0.786366     0.007504
AU3865   AU        0.569012    0.468645    0.819973     0.007504
PT3866   PT        0.601565    0.434528    0.822446     0.004505
PT3867   PT        0.598291    0.465137    0.781490     0.004505
PT3868   PT        0.634528    0.432141    0.786479     0.004505
PT3869   PT        0.669429    0.466878    0.787267     0.004505
AU3870   AU        0.237946    0.500200    0.787249     0.007504
AU3871   AU        0.269392    0.503494    0.820806     0.007504
AU3872   AU        0.270932    0.533145    0.782289     0.007504
AU3873   AU        0.305360    0.498113    0.782222     0.007504
PT3874   PT        0.305487    0.533791    0.816659     0.004505
AU3875   AU        0.340302    0.498972    0.822570     0.007504
PT3876   PT        0.338468    0.533417    0.784332     0.004505
AU3877   AU        0.370019    0.499051    0.781691     0.007504
AU3878   AU        0.370273    0.534350    0.819497     0.007504
AU3879   AU        0.401571    0.498815    0.818230     0.007504
PT3880   PT        0.402413    0.534792    0.780231     0.004505
AU3881   AU        0.435379    0.500456    0.783202     0.007504
PT3882   PT        0.437472    0.534947    0.817253     0.004505
AU3883   AU        0.469451    0.498124    0.818623     0.007504
PT3884   PT        0.469133    0.534286    0.783468     0.004505
AU3885   AU        0.499416    0.499003    0.782672     0.007504
AU3886   AU        0.500784    0.535503    0.821465     0.007504
PT3887   PT        0.534220    0.502430    0.815616     0.004505
AU3888   AU        0.532737    0.534741    0.782371     0.007504
AU3889   AU        0.566598    0.499785    0.782164     0.007504
AU3890   AU        0.564193    0.535511    0.820925     0.007504
PT3891   PT        0.601092    0.543896    0.856538     0.004505
PT3892   PT        0.601222    0.535281    0.786583     0.004505
AU3893   AU        0.636284    0.499263    0.785272     0.007504
PT3894   PT        0.304590    0.607913    0.820714     0.004505
PT3895   PT        0.302788    0.571015    0.786054     0.004505
PT3896   PT        0.338000    0.570063    0.820441     0.004505
PT3897   PT        0.337681    0.607984    0.785975     0.004505
AU3898   AU        0.369470    0.569949    0.783534     0.007504
AU3899   AU        0.370817    0.605060    0.823546     0.007504
AU3900   AU        0.402238    0.568066    0.819517     0.007504
PT3901   PT        0.402546    0.604639    0.785861     0.004505
AU3902   AU        0.434447    0.570706    0.782601     0.007504
AU3903   AU        0.434807    0.603931    0.821170     0.007504
AU3904   AU        0.469639    0.571246    0.819494     0.007504
PT3905   PT        0.470012    0.606913    0.785412     0.004505
PT3906   PT        0.500768    0.569187    0.783051     0.004505
AU3907   AU        0.502497    0.607610    0.820678     0.007504
PT3908   PT        0.532495    0.569665    0.816184     0.004505
AU3909   AU        0.533220    0.603578    0.781424     0.007504
AU3910   AU        0.568735    0.570183    0.782980     0.007504
PT3911   PT        0.595358    0.609122    0.786192     0.004505
PT3912   PT        0.375901    0.677419    0.827906     0.004505
PT3913   PT        0.403738    0.677276    0.787897     0.004505
AU3914   AU        0.434357    0.639458    0.778942     0.007504
AU3915   AU        0.467290    0.674433    0.781183     0.007504
PT3916   PT        0.503078    0.640457    0.782721     0.004505
AU3917   AU        0.403903    0.395279    0.857811     0.007504
AU3918   AU        0.438162    0.358997    0.855626     0.007504
AU3919   AU        0.470213    0.392943    0.856928     0.007504
PT3920   PT        0.367998    0.428774    0.853700     0.004505
PT3921   PT        0.400158    0.462617    0.857500     0.004505
PT3922   PT        0.437617    0.430228    0.855722     0.004505
AU3923   AU        0.469893    0.464641    0.856076     0.007504
AU3924   AU        0.508732    0.430094    0.856336     0.007504
AU3925   AU        0.435323    0.497479    0.849969     0.007504
