data_00001
_audit_creation_method   'DISCUS'

_data_chemical_name_common 'Au.cell: Pearson 85'

_cell_length_a             57.1046
_cell_length_b             61.1835
_cell_length_c             57.1046
_cell_angle_alpha     90.0000
_cell_angle_beta      90.0000
_cell_angle_gamma     90.0000

_symmetry_space_group_name_H-M   'P1              '

loop_
_atom_site_label
_atom_site_symbol
_atom_site_fract_x
_atom_site_fract_y
_atom_site_fract_z
_atom_site_u_iso_or_equiv
PD1   PD        0.353701    0.287258    0.009119     0.005394
PD2   PD        0.433377    0.268998    0.041028     0.005394
PD3   PD        0.499729    0.267804    0.041241     0.005394
PD4   PD        0.288583    0.335127    0.044190     0.005394
PD5   PD        0.327557    0.303981    0.040255     0.005394
PD6   PD        0.363927    0.333960    0.043679     0.005394
PD7   PD        0.394782    0.299370    0.042128     0.005394
PD8   PD        0.431140    0.333124    0.041768     0.005394
PD9   PD        0.466620    0.302137    0.043543     0.005394
PD10   PD        0.504263    0.333425    0.043244     0.005394
PD11   PD        0.538229    0.300443    0.044353     0.005394
PD12   PD        0.575126    0.336164    0.041098     0.005394
PD13   PD        0.222139    0.338361    0.035819     0.005394
PD14   PD        0.288092    0.403537    0.044459     0.005394
PD15   PD        0.362588    0.371250    0.011566     0.005394
PD16   PD        0.361348    0.404482    0.042202     0.005394
PD17   PD        0.395672    0.369354    0.048366     0.005394
PD18   PD        0.396335    0.403340    0.009951     0.005394
PD19   PD        0.397699    0.338493    0.007732     0.005394
PD20   PD        0.429474    0.402979    0.046034     0.005394
PD21   PD        0.434906    0.356197    0.000714     0.005394
PD22   PD        0.464072    0.402995    0.015255     0.005394
PD23   PD        0.505336    0.404494    0.043450     0.005394
PD24   PD        0.540848    0.367616    0.044709     0.005394
PD25   PD        0.575800    0.401370    0.042729     0.005394
PD26   PD        0.611074    0.364934    0.040110     0.005394
PD27   PD        0.251203    0.435809    0.041471     0.005394
PD28   PD        0.290599    0.470768    0.045675     0.005394
PD29   PD        0.324432    0.439131    0.042986     0.005394
PD30   PD        0.360114    0.437325    0.005965     0.005394
PD31   PD        0.358611    0.470791    0.041871     0.005394
PD32   PD        0.392959    0.439033    0.041770     0.005394
PD33   PD        0.399267    0.469223    0.005912     0.005394
AU34   AU        0.430823    0.435467    0.011615     0.007504
AU35   AU        0.431076    0.469303    0.043825     0.007504
PD36   PD        0.467957    0.434964    0.043985     0.005394
PD37   PD        0.466526    0.468692    0.010586     0.005394
PD38   PD        0.506085    0.439345    0.007078     0.005394
PD39   PD        0.503296    0.474158    0.042665     0.005394
PD40   PD        0.542258    0.434814    0.042417     0.005394
PD41   PD        0.577108    0.468880    0.041842     0.005394
PD42   PD        0.616495    0.435052    0.043249     0.005394
PD43   PD        0.189854    0.575484    0.038854     0.005394
PD44   PD        0.287978    0.540068    0.041821     0.005394
PD45   PD        0.322874    0.504830    0.045842     0.005394
PD46   PD        0.367853    0.541040    0.033354     0.005394
PD47   PD        0.393259    0.502912    0.041517     0.005394
PD48   PD        0.431871    0.504688    0.010201     0.005394
PD49   PD        0.431644    0.539311    0.041315     0.005394
PD50   PD        0.466185    0.502582    0.043902     0.005394
PD51   PD        0.504032    0.540616    0.040673     0.005394
PD52   PD        0.539857    0.501437    0.043794     0.005394
PD53   PD        0.579957    0.537440    0.039535     0.005394
PD54   PD        0.614312    0.504214    0.039178     0.005394
PD55   PD        0.324674    0.570785    0.046007     0.005394
PD56   PD        0.356472    0.601259    0.041624     0.005394
PD57   PD        0.393540    0.571488    0.040851     0.005394
PD58   PD        0.476784    0.604749    0.005734     0.005394
PD59   PD        0.466623    0.572080    0.041863     0.005394
PD60   PD        0.504778    0.601991    0.035144     0.005394
PD61   PD        0.542178    0.571032    0.043647     0.005394
PD62   PD        0.292603    0.203929    0.113677     0.005394
AU63   AU        0.361561    0.204682    0.114405     0.007504
PD64   PD        0.449919    0.104907    0.079261     0.005394
PD65   PD        0.396250    0.199992    0.081134     0.005394
PD66   PD        0.431129    0.202819    0.113955     0.005394
PD67   PD        0.466876    0.170468    0.118695     0.005394
PD68   PD        0.486730    0.222590    0.034403     0.005394
PD69   PD        0.536210    0.199208    0.080194     0.005394
PD70   PD        0.535434    0.166761    0.111386     0.005394
PD71   PD        0.217882    0.268676    0.116177     0.005394
PD72   PD        0.254657    0.236063    0.111793     0.005394
PD73   PD        0.252505    0.267577    0.078300     0.005394
PD74   PD        0.290101    0.269982    0.113671     0.005394
PD75   PD        0.322295    0.234459    0.112129     0.005394
PD76   PD        0.286546    0.237425    0.073119     0.005394
PD77   PD        0.363304    0.235330    0.080839     0.005394
AU78   AU        0.361133    0.267795    0.112739     0.007504
PD79   PD        0.397340    0.235730    0.116302     0.005394
PD80   PD        0.395607    0.268266    0.079688     0.005394
PD81   PD        0.429792    0.235899    0.078706     0.005394
PD82   PD        0.431479    0.269114    0.115512     0.005394
PD83   PD        0.466598    0.235484    0.113996     0.005394
PD84   PD        0.468527    0.272873    0.078745     0.005394
PD85   PD        0.503433    0.236458    0.077533     0.005394
PD86   PD        0.502550    0.266168    0.112517     0.005394
PD87   PD        0.541002    0.236601    0.115583     0.005394
PD88   PD        0.537978    0.269902    0.080203     0.005394
AU89   AU        0.577597    0.266362    0.112837     0.007504
PD90   PD        0.614325    0.237398    0.115535     0.005394
PD91   PD        0.608625    0.269638    0.071883     0.005394
PD92   PD        0.647310    0.268693    0.113164     0.005394
PD93   PD        0.181712    0.301851    0.114564     0.005394
PD94   PD        0.217475    0.337146    0.111642     0.005394
PD95   PD        0.252347    0.303982    0.115473     0.005394
PD96   PD        0.254202    0.334556    0.075435     0.005394
PD97   PD        0.289378    0.300586    0.078090     0.005394
PD98   PD        0.287899    0.333652    0.111545     0.005394
PD99   PD        0.325949    0.302841    0.115387     0.005394
PD100   PD        0.324767    0.334973    0.077885     0.005394
PD101   PD        0.361437    0.299626    0.076436     0.005394
PD102   PD        0.359366    0.333309    0.113360     0.005394
AU103   AU        0.395458    0.299430    0.113069     0.007504
AU104   AU        0.396395    0.335075    0.079007     0.007504
AU105   AU        0.430447    0.300639    0.078858     0.007504
PD106   PD        0.431642    0.334644    0.113999     0.005394
AU107   AU        0.467757    0.302248    0.112697     0.007504
PD108   PD        0.469606    0.333636    0.077025     0.005394
PD109   PD        0.504097    0.301482    0.076640     0.005394
PD110   PD        0.503827    0.333506    0.114276     0.005394
PD111   PD        0.541417    0.302226    0.112644     0.005394
PD112   PD        0.540148    0.335270    0.076859     0.005394
PD113   PD        0.575095    0.302017    0.080184     0.005394
PD114   PD        0.577101    0.337421    0.111981     0.005394
PD115   PD        0.611202    0.302209    0.111925     0.005394
PD116   PD        0.608397    0.334209    0.075830     0.005394
AU117   AU        0.644495    0.334381    0.114648     0.007504
PD118   PD        0.678892    0.303561    0.111215     0.005394
PD119   PD        0.144283    0.399364    0.113943     0.005394
PD120   PD        0.182602    0.372143    0.111589     0.005394
PD121   PD        0.181566    0.404168    0.076573     0.005394
PD122   PD        0.218516    0.369539    0.076243     0.005394
PD123   PD        0.217266    0.404610    0.110888     0.005394
PD124   PD        0.256481    0.369507    0.110130     0.005394
PD125   PD        0.253269    0.402973    0.079565     0.005394
PD126   PD        0.292115    0.368961    0.077417     0.005394
PD127   PD        0.289270    0.403914    0.112307     0.005394
PD128   PD        0.322671    0.371526    0.113470     0.005394
PD129   PD        0.326422    0.403900    0.077690     0.005394
PD130   PD        0.358401    0.370390    0.076616     0.005394
PD131   PD        0.358039    0.403932    0.112577     0.005394
PD132   PD        0.394745    0.368841    0.115119     0.005394
PD133   PD        0.395918    0.401180    0.079411     0.005394
PD134   PD        0.431516    0.368715    0.080516     0.005394
PD135   PD        0.432573    0.403869    0.113389     0.005394
PD136   PD        0.471342    0.367740    0.110086     0.005394
PD137   PD        0.466751    0.401630    0.077899     0.005394
PD138   PD        0.507185    0.369278    0.076881     0.005394
PD139   PD        0.504808    0.399582    0.112660     0.005394
AU140   AU        0.542481    0.368200    0.110455     0.007504
PD141   PD        0.540459    0.401686    0.078975     0.005394
PD142   PD        0.577403    0.367747    0.075167     0.005394
AU143   AU        0.579533    0.400788    0.110775     0.007504
AU144   AU        0.612359    0.368552    0.114563     0.007504
PD145   PD        0.612219    0.398307    0.076111     0.005394
PD146   PD        0.643912    0.365086    0.078055     0.005394
PD147   PD        0.647243    0.400682    0.112228     0.005394
PD148   PD        0.680440    0.368626    0.111903     0.005394
PD149   PD        0.680680    0.363170    0.044213     0.005394
PD150   PD        0.714460    0.400309    0.111121     0.005394
PD151   PD        0.147146    0.468511    0.112769     0.005394
PD152   PD        0.182455    0.438643    0.112248     0.005394
PD153   PD        0.183746    0.474493    0.077821     0.005394
PD154   PD        0.218261    0.435930    0.078984     0.005394
AU155   AU        0.217038    0.471757    0.112961     0.007504
AU156   AU        0.251828    0.438487    0.113951     0.007504
PD157   PD        0.254293    0.469439    0.079179     0.005394
PD158   PD        0.289303    0.436915    0.079095     0.005394
AU159   AU        0.286732    0.471351    0.113381     0.007504
AU160   AU        0.322699    0.437342    0.113085     0.007504
AU161   AU        0.324919    0.471786    0.078931     0.007504
PD162   PD        0.358049    0.436771    0.078009     0.005394
AU163   AU        0.359969    0.471517    0.114202     0.007504
PD164   PD        0.396723    0.435192    0.113140     0.005394
PD165   PD        0.395034    0.471686    0.076091     0.005394
PD166   PD        0.430845    0.434894    0.076696     0.005394
PD167   PD        0.430794    0.471395    0.110115     0.005394
PD168   PD        0.465889    0.436264    0.110635     0.005394
PD169   PD        0.470081    0.468611    0.074327     0.005394
PD170   PD        0.509012    0.435178    0.075447     0.005394
PD171   PD        0.503629    0.473758    0.111247     0.005394
PD172   PD        0.543317    0.432272    0.111434     0.005394
PD173   PD        0.543882    0.470200    0.078506     0.005394
PD174   PD        0.579684    0.436118    0.075357     0.005394
PD175   PD        0.577646    0.470039    0.111281     0.005394
PD176   PD        0.611078    0.437905    0.114248     0.005394
AU177   AU        0.614568    0.471313    0.076575     0.007504
PD178   PD        0.646840    0.435439    0.080102     0.005394
PD179   PD        0.645123    0.469944    0.114818     0.005394
PD180   PD        0.683558    0.435642    0.112606     0.005394
PD181   PD        0.680931    0.470530    0.078496     0.005394
PD182   PD        0.716910    0.467371    0.111957     0.005394
AU183   AU        0.184191    0.504696    0.113132     0.007504
PD184   PD        0.222501    0.504088    0.076767     0.005394
PD185   PD        0.217492    0.536744    0.109266     0.005394
PD186   PD        0.251033    0.503576    0.112341     0.005394
PD187   PD        0.251779    0.540106    0.077540     0.005394
AU188   AU        0.288950    0.504052    0.079743     0.007504
AU189   AU        0.290295    0.538335    0.113681     0.007504
AU190   AU        0.324128    0.504219    0.113352     0.007504
PD191   PD        0.325083    0.536757    0.079320     0.005394
PD192   PD        0.360245    0.505529    0.080055     0.005394
AU193   AU        0.359525    0.537600    0.114612     0.007504
PD194   PD        0.393896    0.506187    0.113122     0.005394
AU195   AU        0.394674    0.539851    0.077109     0.007504
PD196   PD        0.428797    0.508909    0.076532     0.005394
PD197   PD        0.430184    0.538072    0.111262     0.005394
PD198   PD        0.468575    0.507215    0.109935     0.005394
AU199   AU        0.467264    0.537917    0.076342     0.007504
PD200   PD        0.504643    0.508593    0.074998     0.005394
PD201   PD        0.503542    0.539242    0.112439     0.005394
PD202   PD        0.540621    0.507409    0.111355     0.005394
PD203   PD        0.543949    0.538477    0.075231     0.005394
AU204   AU        0.579022    0.502696    0.075646     0.007504
PD205   PD        0.578120    0.536113    0.108898     0.005394
PD206   PD        0.611668    0.498558    0.113933     0.005394
PD207   PD        0.615808    0.535398    0.077545     0.005394
PD208   PD        0.646155    0.503545    0.076756     0.005394
PD209   PD        0.650361    0.537269    0.114082     0.005394
PD210   PD        0.683596    0.501626    0.114181     0.005394
PD211   PD        0.162338    0.540978    0.016413     0.005394
PD212   PD        0.219845    0.606500    0.112485     0.005394
PD213   PD        0.252750    0.571010    0.111904     0.005394
PD214   PD        0.257472    0.607023    0.076371     0.005394
PD215   PD        0.286954    0.571324    0.078775     0.005394
AU216   AU        0.289487    0.605967    0.111847     0.007504
AU217   AU        0.324373    0.571088    0.113708     0.007504
PD218   PD        0.325387    0.603544    0.079902     0.005394
PD219   PD        0.357796    0.571730    0.077885     0.005394
AU220   AU        0.360208    0.603237    0.115545     0.007504
PD221   PD        0.396757    0.571622    0.115747     0.005394
PD222   PD        0.394403    0.601766    0.080559     0.005394
PD223   PD        0.430026    0.572159    0.076044     0.005394
PD224   PD        0.435580    0.603789    0.112441     0.005394
PD225   PD        0.466861    0.569760    0.111539     0.005394
PD226   PD        0.469231    0.602889    0.075678     0.005394
PD227   PD        0.504324    0.569990    0.075216     0.005394
PD228   PD        0.500595    0.602527    0.113425     0.005394
PD229   PD        0.540863    0.569595    0.110103     0.005394
PD230   PD        0.538610    0.603471    0.077250     0.005394
PD231   PD        0.581131    0.565462    0.073642     0.005394
PD232   PD        0.574737    0.604870    0.112238     0.005394
PD233   PD        0.614076    0.570298    0.112127     0.005394
PD234   PD        0.572445    0.604973    0.041686     0.005394
PD235   PD        0.650990    0.602113    0.108478     0.005394
PD236   PD        0.685638    0.573421    0.114108     0.005394
PD237   PD        0.254985    0.637432    0.110634     0.005394
PD238   PD        0.292643    0.671757    0.111530     0.005394
PD239   PD        0.324364    0.635974    0.115631     0.005394
PD240   PD        0.362693    0.634370    0.081230     0.005394
PD241   PD        0.360566    0.666396    0.114758     0.005394
PD242   PD        0.397909    0.634865    0.112940     0.005394
PD243   PD        0.395369    0.671482    0.076354     0.005394
PD244   PD        0.432217    0.639129    0.077970     0.005394
PD245   PD        0.429947    0.671390    0.114004     0.005394
PD246   PD        0.467184    0.636475    0.115125     0.005394
PD247   PD        0.467854    0.671934    0.075395     0.005394
PD248   PD        0.546388    0.675584    0.078328     0.005394
PD249   PD        0.504720    0.672091    0.116230     0.005394
PD250   PD        0.537686    0.635175    0.111027     0.005394
PD251   PD        0.577136    0.669778    0.113922     0.005394
PD252   PD        0.611334    0.636813    0.114408     0.005394
PD253   PD        0.393556    0.704475    0.115827     0.005394
PD254   PD        0.467582    0.700348    0.114781     0.005394
PD255   PD        0.290201    0.139644    0.186205     0.005394
PD256   PD        0.361513    0.135016    0.184115     0.005394
PD257   PD        0.399294    0.102306    0.188487     0.005394
PD258   PD        0.394779    0.169309    0.115262     0.005394
PD259   PD        0.434380    0.135111    0.184908     0.005394
PD260   PD        0.469863    0.101176    0.184722     0.005394
PD261   PD        0.457932    0.081100    0.119429     0.005394
PD262   PD        0.502829    0.138157    0.187006     0.005394
PD263   PD        0.575959    0.135119    0.181794     0.005394
PD264   PD        0.215713    0.205124    0.184076     0.005394
PD265   PD        0.256635    0.173193    0.183537     0.005394
PD266   PD        0.254335    0.203754    0.147915     0.005394
PD267   PD        0.289296    0.171092    0.149514     0.005394
PD268   PD        0.290712    0.203304    0.187655     0.005394
PD269   PD        0.324436    0.168766    0.186765     0.005394
PD270   PD        0.326078    0.202293    0.152060     0.005394
PD271   PD        0.360247    0.170423    0.150579     0.005394
AU272   AU        0.361337    0.202147    0.185151     0.007504
PD273   PD        0.396512    0.170345    0.185835     0.005394
PD274   PD        0.395288    0.202513    0.150690     0.005394
PD275   PD        0.432052    0.165466    0.152236     0.005394
PD276   PD        0.431748    0.201210    0.187752     0.005394
AU277   AU        0.467357    0.168415    0.187561     0.007504
PD278   PD        0.468378    0.197825    0.148748     0.005394
PD279   PD        0.505257    0.168801    0.148911     0.005394
AU280   AU        0.506446    0.199778    0.183969     0.007504
PD281   PD        0.542722    0.168752    0.186055     0.005394
AU282   AU        0.540940    0.200863    0.148876     0.007504
PD283   PD        0.575260    0.170927    0.149401     0.005394
PD284   PD        0.575115    0.201029    0.184866     0.005394
PD285   PD        0.612748    0.169931    0.184021     0.005394
PD286   PD        0.609196    0.201986    0.151779     0.005394
AU287   AU        0.645475    0.200750    0.185025     0.007504
PD288   PD        0.144352    0.267684    0.187836     0.005394
PD289   PD        0.181090    0.237311    0.186027     0.005394
PD290   PD        0.180609    0.270534    0.151350     0.005394
PD291   PD        0.220481    0.235220    0.152592     0.005394
AU292   AU        0.217108    0.267086    0.187235     0.007504
PD293   PD        0.253533    0.236888    0.185266     0.005394
PD294   PD        0.252077    0.271082    0.150631     0.005394
PD295   PD        0.289857    0.233491    0.150085     0.005394
PD296   PD        0.291025    0.270472    0.184260     0.005394
PD297   PD        0.328311    0.235437    0.183379     0.005394
AU298   AU        0.327285    0.267355    0.148688     0.007504
AU299   AU        0.362251    0.236184    0.149790     0.007504
AU300   AU        0.363588    0.268721    0.185045     0.007504
AU301   AU        0.395200    0.233703    0.185865     0.007504
AU302   AU        0.396543    0.267728    0.148782     0.007504
PD303   PD        0.428950    0.235189    0.148973     0.005394
AU304   AU        0.431678    0.266267    0.183080     0.007504
PD305   PD        0.468478    0.234108    0.184928     0.005394
PD306   PD        0.467449    0.268498    0.147642     0.005394
AU307   AU        0.502695    0.232217    0.146802     0.007504
PD308   PD        0.503768    0.266846    0.181206     0.005394
AU309   AU        0.541050    0.232448    0.183895     0.007504
PD310   PD        0.539202    0.266524    0.148936     0.005394
PD311   PD        0.575935    0.232086    0.146642     0.005394
PD312   PD        0.577843    0.267214    0.184087     0.005394
PD313   PD        0.608953    0.233148    0.183758     0.005394
PD314   PD        0.611461    0.269493    0.146630     0.005394
PD315   PD        0.647661    0.235974    0.153533     0.005394
PD316   PD        0.645642    0.266866    0.183118     0.005394
PD317   PD        0.682053    0.234934    0.185403     0.005394
PD318   PD        0.680746    0.268876    0.148161     0.005394
AU319   AU        0.717253    0.268616    0.184205     0.007504
PD320   PD        0.112460    0.303971    0.183637     0.005394
PD321   PD        0.110958    0.335691    0.147917     0.005394
PD322   PD        0.147397    0.333921    0.183861     0.005394
PD323   PD        0.182908    0.301398    0.187342     0.005394
PD324   PD        0.183299    0.337806    0.145860     0.005394
PD325   PD        0.218233    0.302615    0.148504     0.005394
PD326   PD        0.217858    0.334569    0.182995     0.005394
PD327   PD        0.252596    0.299607    0.184167     0.005394
PD328   PD        0.253390    0.334103    0.149719     0.005394
PD329   PD        0.289274    0.300958    0.150268     0.005394
AU330   AU        0.287020    0.333444    0.182987     0.007504
AU331   AU        0.326361    0.302154    0.183395     0.007504
AU332   AU        0.323640    0.334362    0.148370     0.007504
AU333   AU        0.361442    0.301743    0.148747     0.007504
AU334   AU        0.359800    0.335908    0.180231     0.007504
AU335   AU        0.397139    0.300151    0.184491     0.007504
PD336   PD        0.396608    0.336324    0.149319     0.005394
AU337   AU        0.431765    0.301677    0.149165     0.007504
AU338   AU        0.433212    0.335875    0.183680     0.007504
AU339   AU        0.468706    0.302494    0.184241     0.007504
AU340   AU        0.467444    0.335473    0.146995     0.007504
PD341   PD        0.505199    0.303534    0.147840     0.005394
AU342   AU        0.502511    0.336191    0.182391     0.007504
AU343   AU        0.543788    0.302778    0.181660     0.007504
PD344   PD        0.541223    0.337026    0.145405     0.005394
PD345   PD        0.574697    0.302580    0.146808     0.005394
AU346   AU        0.577715    0.336499    0.182198     0.007504
PD347   PD        0.608403    0.301730    0.182405     0.005394
AU348   AU        0.610353    0.333564    0.147187     0.007504
PD349   PD        0.646773    0.301247    0.149554     0.005394
PD350   PD        0.646232    0.334579    0.179357     0.005394
PD351   PD        0.683378    0.301446    0.184251     0.005394
PD352   PD        0.683189    0.336222    0.146346     0.005394
PD353   PD        0.716192    0.301693    0.147580     0.005394
PD354   PD        0.715873    0.335961    0.185412     0.005394
PD355   PD        0.750344    0.301148    0.179484     0.005394
PD356   PD        0.081727    0.404348    0.179020     0.005394
PD357   PD        0.110936    0.367905    0.181966     0.005394
PD358   PD        0.107599    0.403059    0.147636     0.005394
PD359   PD        0.147542    0.371481    0.148423     0.005394
PD360   PD        0.145579    0.404637    0.178274     0.005394
PD361   PD        0.181260    0.367707    0.182083     0.005394
PD362   PD        0.181826    0.401893    0.145760     0.005394
AU363   AU        0.216939    0.369650    0.146015     0.007504
PD364   PD        0.218244    0.402031    0.182380     0.005394
PD365   PD        0.252189    0.365931    0.183365     0.005394
PD366   PD        0.251057    0.403470    0.145129     0.005394
PD367   PD        0.285845    0.371061    0.147759     0.005394
PD368   PD        0.288072    0.404035    0.183919     0.005394
AU369   AU        0.324928    0.367773    0.184403     0.007504
PD370   PD        0.323990    0.401762    0.149107     0.005394
PD371   PD        0.358079    0.366897    0.146936     0.005394
AU372   AU        0.360650    0.402312    0.184190     0.007504
AU373   AU        0.397094    0.368191    0.184121     0.007504
PD374   PD        0.394988    0.399934    0.149404     0.005394
AU375   AU        0.434233    0.369294    0.147788     0.007504
AU376   AU        0.432523    0.402222    0.183141     0.007504
AU377   AU        0.469195    0.368755    0.183963     0.007504
AU378   AU        0.469804    0.401375    0.147312     0.007504
AU379   AU        0.505150    0.368431    0.148800     0.007504
AU380   AU        0.506087    0.401292    0.183227     0.007504
AU381   AU        0.540422    0.366939    0.181671     0.007504
PD382   PD        0.539817    0.399181    0.146438     0.005394
AU383   AU        0.577879    0.368805    0.146327     0.007504
AU384   AU        0.575795    0.400997    0.182193     0.007504
AU385   AU        0.612833    0.369670    0.182146     0.007504
AU386   AU        0.613535    0.402038    0.146654     0.007504
AU387   AU        0.646201    0.368063    0.147921     0.007504
AU388   AU        0.646595    0.401399    0.183327     0.007504
AU389   AU        0.682003    0.368834    0.185406     0.007504
AU390   AU        0.681741    0.401897    0.146044     0.007504
PD391   PD        0.716908    0.369427    0.146141     0.005394
PD392   PD        0.718121    0.400157    0.181651     0.005394
PD393   PD        0.751791    0.370081    0.186498     0.005394
PD394   PD        0.754109    0.400021    0.148347     0.005394
PD395   PD        0.789364    0.400068    0.185555     0.005394
PD396   PD        0.079176    0.470188    0.180727     0.005394
PD397   PD        0.112623    0.438294    0.183699     0.005394
PD398   PD        0.112027    0.467921    0.146896     0.005394
PD399   PD        0.144889    0.437186    0.148440     0.005394
PD400   PD        0.146789    0.471036    0.180650     0.005394
PD401   PD        0.181678    0.437824    0.182608     0.005394
AU402   AU        0.182200    0.469275    0.148537     0.007504
AU403   AU        0.216129    0.438490    0.146380     0.007504
AU404   AU        0.217273    0.469813    0.181568     0.007504
AU405   AU        0.250460    0.436612    0.182247     0.007504
AU406   AU        0.253721    0.469890    0.148732     0.007504
AU407   AU        0.287310    0.436193    0.146948     0.007504
AU408   AU        0.288475    0.471663    0.182229     0.007504
PD409   PD        0.323193    0.435542    0.180727     0.005394
AU410   AU        0.323747    0.468974    0.147480     0.007504
AU411   AU        0.360625    0.436669    0.147019     0.007504
AU412   AU        0.359288    0.471309    0.181625     0.007504
AU413   AU        0.394888    0.437826    0.182316     0.007504
PD414   PD        0.397384    0.469716    0.147966     0.005394
AU415   AU        0.433601    0.434608    0.150021     0.007504
AU416   AU        0.431963    0.469351    0.182180     0.007504
AU417   AU        0.469338    0.434633    0.183448     0.007504
PD418   PD        0.468293    0.469508    0.148301     0.005394
PD419   PD        0.504311    0.433061    0.146903     0.005394
PD420   PD        0.505380    0.466551    0.181093     0.005394
AU421   AU        0.541977    0.436861    0.182907     0.007504
PD422   PD        0.538430    0.468366    0.144712     0.005394
PD423   PD        0.577098    0.436743    0.146073     0.005394
PD424   PD        0.577366    0.467176    0.182443     0.005394
AU425   AU        0.613126    0.435779    0.183733     0.007504
PD426   PD        0.612334    0.468437    0.147800     0.005394
AU427   AU        0.647229    0.433207    0.146622     0.007504
AU428   AU        0.647358    0.468498    0.181927     0.007504
PD429   PD        0.683780    0.434677    0.181337     0.005394
PD430   PD        0.681485    0.470329    0.147047     0.005394
PD431   PD        0.720717    0.432648    0.148273     0.005394
PD432   PD        0.718465    0.467894    0.182924     0.005394
PD433   PD        0.753709    0.434101    0.183358     0.005394
PD434   PD        0.757275    0.467860    0.147958     0.005394
PD435   PD        0.789644    0.469291    0.186578     0.005394
PD436   PD        0.112161    0.504105    0.180122     0.005394
PD437   PD        0.146733    0.501692    0.147436     0.005394
AU438   AU        0.146697    0.536075    0.183676     0.007504
PD439   PD        0.182632    0.500705    0.181902     0.005394
PD440   PD        0.182488    0.536730    0.148117     0.005394
AU441   AU        0.217801    0.503637    0.147531     0.007504
AU442   AU        0.218096    0.537454    0.182300     0.007504
AU443   AU        0.252386    0.504678    0.181129     0.007504
PD444   PD        0.253335    0.539207    0.146524     0.005394
AU445   AU        0.289745    0.504442    0.147077     0.007504
PD446   PD        0.287313    0.538811    0.182989     0.005394
AU447   AU        0.325770    0.505913    0.181673     0.007504
AU448   AU        0.323529    0.537568    0.147079     0.007504
AU449   AU        0.357957    0.505287    0.148206     0.007504
AU450   AU        0.360738    0.537722    0.182735     0.007504
AU451   AU        0.395381    0.503967    0.182030     0.007504
AU452   AU        0.396554    0.538178    0.148791     0.007504
AU453   AU        0.432428    0.505868    0.148291     0.007504
AU454   AU        0.432299    0.538804    0.181949     0.007504
PD455   PD        0.467768    0.504495    0.183579     0.005394
PD456   PD        0.468641    0.538950    0.146403     0.005394
PD457   PD        0.504575    0.504695    0.146992     0.005394
PD458   PD        0.503922    0.536566    0.182584     0.005394
PD459   PD        0.542061    0.505698    0.183021     0.005394
PD460   PD        0.541672    0.539040    0.147189     0.005394
PD461   PD        0.575712    0.503329    0.147134     0.005394
PD462   PD        0.576548    0.540077    0.182252     0.005394
PD463   PD        0.615978    0.503243    0.184154     0.005394
PD464   PD        0.614600    0.538180    0.146085     0.005394
PD465   PD        0.646420    0.502918    0.147853     0.005394
PD466   PD        0.647345    0.537307    0.180196     0.005394
PD467   PD        0.684234    0.502789    0.181688     0.005394
PD468   PD        0.686375    0.535676    0.145634     0.005394
PD469   PD        0.718566    0.535881    0.110931     0.005394
PD470   PD        0.718897    0.535791    0.179761     0.005394
PD471   PD        0.749309    0.499264    0.184529     0.005394
PD472   PD        0.133128    0.688736    0.070660     0.005394
PD473   PD        0.144627    0.568762    0.150459     0.005394
PD474   PD        0.143041    0.601633    0.187219     0.005394
AU475   AU        0.182779    0.569191    0.182935     0.007504
PD476   PD        0.186277    0.607725    0.148927     0.005394
PD477   PD        0.217297    0.571154    0.146581     0.005394
PD478   PD        0.217797    0.605295    0.183694     0.005394
AU479   AU        0.254121    0.572482    0.183868     0.007504
PD480   PD        0.254951    0.605858    0.147187     0.005394
AU481   AU        0.289663    0.570500    0.147657     0.007504
AU482   AU        0.289203    0.603559    0.183934     0.007504
AU483   AU        0.325318    0.570660    0.182148     0.007504
AU484   AU        0.324129    0.603208    0.148968     0.007504
AU485   AU        0.359460    0.570838    0.148272     0.007504
AU486   AU        0.362552    0.603352    0.184864     0.007504
AU487   AU        0.394344    0.572027    0.182991     0.007504
AU488   AU        0.396205    0.604719    0.149099     0.007504
AU489   AU        0.431914    0.572268    0.147805     0.007504
PD490   PD        0.432812    0.604411    0.182439     0.005394
PD491   PD        0.470341    0.573614    0.183503     0.005394
PD492   PD        0.466789    0.605158    0.148532     0.005394
AU493   AU        0.504262    0.571390    0.146029     0.007504
AU494   AU        0.505664    0.604501    0.182045     0.007504
PD495   PD        0.540789    0.573890    0.181292     0.005394
PD496   PD        0.540866    0.607363    0.145528     0.005394
AU497   AU        0.578518    0.571336    0.144845     0.007504
PD498   PD        0.580922    0.604781    0.182797     0.005394
PD499   PD        0.612197    0.570929    0.181225     0.005394
PD500   PD        0.615545    0.603746    0.146982     0.005394
AU501   AU        0.648265    0.572989    0.147523     0.007504
AU502   AU        0.650807    0.604288    0.183388     0.007504
AU503   AU        0.683857    0.568883    0.183218     0.007504
PD504   PD        0.687845    0.604294    0.150307     0.005394
PD505   PD        0.720725    0.565595    0.143811     0.005394
PD506   PD        0.720831    0.604383    0.187398     0.005394
PD507   PD        0.754633    0.570208    0.182049     0.005394
PD508   PD        0.182063    0.637412    0.186101     0.005394
PD509   PD        0.219608    0.638360    0.147935     0.005394
AU510   AU        0.217397    0.669900    0.186335     0.007504
PD511   PD        0.254303    0.637299    0.183602     0.005394
PD512   PD        0.241333    0.704854    0.116561     0.005394
AU513   AU        0.289166    0.638006    0.149269     0.007504
PD514   PD        0.290223    0.670141    0.182236     0.005394
AU515   AU        0.326271    0.636938    0.183230     0.007504
PD516   PD        0.324450    0.670994    0.149985     0.005394
PD517   PD        0.361229    0.636611    0.149832     0.005394
AU518   AU        0.361218    0.670870    0.184288     0.007504
AU519   AU        0.396801    0.638189    0.183754     0.007504
PD520   PD        0.397046    0.669823    0.147578     0.005394
PD521   PD        0.429242    0.635896    0.147737     0.005394
PD522   PD        0.430912    0.672777    0.181747     0.005394
PD523   PD        0.469628    0.636076    0.182818     0.005394
PD524   PD        0.465074    0.669396    0.150412     0.005394
AU525   AU        0.503059    0.636721    0.148200     0.007504
PD526   PD        0.505107    0.671537    0.183284     0.005394
AU527   AU        0.540418    0.637002    0.183770     0.007504
PD528   PD        0.541185    0.668231    0.148688     0.005394
PD529   PD        0.575958    0.635527    0.148053     0.005394
AU530   AU        0.575618    0.668538    0.182976     0.007504
AU531   AU        0.612227    0.636471    0.183713     0.007504
PD532   PD        0.614712    0.669184    0.149049     0.005394
PD533   PD        0.649548    0.638129    0.149215     0.005394
PD534   PD        0.680811    0.671461    0.149562     0.005394
PD535   PD        0.683220    0.636104    0.186808     0.005394
PD536   PD        0.253591    0.700487    0.184843     0.005394
PD537   PD        0.291697    0.704601    0.148231     0.005394
PD538   PD        0.285406    0.767320    0.148043     0.005394
PD539   PD        0.327265    0.703444    0.182991     0.005394
PD540   PD        0.361068    0.702747    0.148597     0.005394
PD541   PD        0.364795    0.739456    0.183438     0.005394
PD542   PD        0.395619    0.701822    0.182586     0.005394
PD543   PD        0.399273    0.736704    0.148639     0.005394
PD544   PD        0.429241    0.703669    0.147942     0.005394
PD545   PD        0.431549    0.736713    0.184002     0.005394
PD546   PD        0.467820    0.703564    0.183886     0.005394
AU547   AU        0.468329    0.734681    0.148059     0.007504
PD548   PD        0.503976    0.703813    0.146785     0.005394
PD549   PD        0.504539    0.738476    0.184027     0.005394
AU550   AU        0.541562    0.699869    0.182347     0.007504
PD551   PD        0.585612    0.708874    0.079661     0.005394
PD552   PD        0.577247    0.737567    0.181467     0.005394
PD553   PD        0.609973    0.701179    0.185976     0.005394
PD554   PD        0.365972    0.836013    0.216807     0.005394
PD555   PD        0.435156    0.766726    0.145535     0.005394
PD556   PD        0.357065    0.072428    0.255105     0.005394
PD557   PD        0.503202    0.037442    0.289162     0.005394
PD558   PD        0.506744    0.073891    0.257060     0.005394
PD559   PD        0.220293    0.135830    0.257583     0.005394
PD560   PD        0.258725    0.100556    0.251274     0.005394
PD561   PD        0.255174    0.138981    0.218486     0.005394
PD562   PD        0.287635    0.136670    0.255336     0.005394
PD563   PD        0.322037    0.105281    0.256486     0.005394
PD564   PD        0.322616    0.137067    0.221843     0.005394
PD565   PD        0.360817    0.103162    0.220001     0.005394
PD566   PD        0.362498    0.135289    0.256881     0.005394
PD567   PD        0.397554    0.102652    0.255287     0.005394
AU568   AU        0.395543    0.137032    0.219322     0.007504
PD569   PD        0.441240    0.035540    0.214318     0.005394
PD570   PD        0.431685    0.136556    0.255080     0.005394
PD571   PD        0.469357    0.103264    0.254729     0.005394
PD572   PD        0.466846    0.134635    0.220312     0.005394
PD573   PD        0.503227    0.102457    0.220074     0.005394
AU574   AU        0.504634    0.135325    0.254356     0.007504
PD575   PD        0.537207    0.098904    0.252385     0.005394
PD576   PD        0.539101    0.136671    0.219880     0.005394
PD577   PD        0.575446    0.136096    0.255872     0.005394
PD578   PD        0.645625    0.099916    0.294400     0.005394
PD579   PD        0.611278    0.135602    0.220800     0.005394
PD580   PD        0.644270    0.133327    0.255093     0.005394
PD581   PD        0.148462    0.202518    0.256815     0.005394
PD582   PD        0.184005    0.169198    0.257262     0.005394
PD583   PD        0.182704    0.203397    0.220597     0.005394
PD584   PD        0.220407    0.169785    0.220627     0.005394
AU585   AU        0.219703    0.201077    0.256124     0.007504
AU586   AU        0.254999    0.172104    0.257090     0.007504
AU587   AU        0.253904    0.203504    0.219927     0.007504
PD588   PD        0.288958    0.171175    0.218857     0.005394
AU589   AU        0.288769    0.201855    0.253359     0.007504
PD590   PD        0.324559    0.168542    0.255222     0.005394
AU591   AU        0.326704    0.201334    0.219162     0.007504
AU592   AU        0.359795    0.167967    0.219579     0.007504
AU593   AU        0.361428    0.202073    0.255028     0.007504
AU594   AU        0.398334    0.168273    0.256357     0.007504
AU595   AU        0.397099    0.200212    0.220553     0.007504
AU596   AU        0.430965    0.166772    0.219392     0.007504
AU597   AU        0.432761    0.200667    0.254588     0.007504
AU598   AU        0.465446    0.167942    0.254461     0.007504
AU599   AU        0.468577    0.201374    0.219036     0.007504
PD600   PD        0.502793    0.165489    0.219733     0.005394
PD601   PD        0.504443    0.199833    0.253890     0.005394
AU602   AU        0.542018    0.167555    0.253371     0.007504
AU603   AU        0.540758    0.199661    0.220509     0.007504
AU604   AU        0.577941    0.168497    0.219618     0.007504
AU605   AU        0.577363    0.200141    0.255824     0.007504
PD606   PD        0.612252    0.168488    0.255875     0.005394
PD607   PD        0.609592    0.203382    0.221085     0.005394
PD608   PD        0.646962    0.168089    0.219233     0.005394
PD609   PD        0.648957    0.200077    0.258452     0.005394
PD610   PD        0.683380    0.166184    0.256853     0.005394
PD611   PD        0.683218    0.200747    0.218494     0.005394
PD612   PD        0.716408    0.201528    0.257844     0.005394
PD613   PD        0.075883    0.270829    0.254196     0.005394
PD614   PD        0.113838    0.236336    0.255229     0.005394
PD615   PD        0.108855    0.269300    0.220796     0.005394
PD616   PD        0.145124    0.237194    0.221502     0.005394
PD617   PD        0.147287    0.272026    0.253733     0.005394
PD618   PD        0.182486    0.235661    0.254890     0.005394
PD619   PD        0.181816    0.268597    0.220921     0.005394
AU620   AU        0.217336    0.233716    0.220688     0.007504
AU621   AU        0.217128    0.267252    0.254156     0.007504
AU622   AU        0.253888    0.234693    0.254209     0.007504
AU623   AU        0.253493    0.267723    0.221701     0.007504
PD624   PD        0.291631    0.233728    0.222659     0.005394
AU625   AU        0.288054    0.268759    0.255648     0.007504
AU626   AU        0.325622    0.234680    0.254255     0.007504
AU627   AU        0.325697    0.269665    0.218385     0.007504
AU628   AU        0.359653    0.234111    0.219999     0.007504
AU629   AU        0.360869    0.266936    0.253086     0.007504
AU630   AU        0.396221    0.234116    0.254535     0.007504
AU631   AU        0.398497    0.269067    0.218988     0.007504
AU632   AU        0.430989    0.232260    0.219425     0.007504
AU633   AU        0.431715    0.266346    0.253309     0.007504
PD634   PD        0.467819    0.232467    0.254928     0.005394
PD635   PD        0.468162    0.266813    0.220764     0.005394
AU636   AU        0.505210    0.235174    0.221079     0.007504
PD637   PD        0.506789    0.268080    0.255194     0.005394
AU638   AU        0.542147    0.234877    0.255417     0.007504
AU639   AU        0.542845    0.269891    0.219022     0.007504
AU640   AU        0.573491    0.232113    0.219935     0.007504
PD641   PD        0.578440    0.266273    0.255073     0.005394
PD642   PD        0.613325    0.231716    0.257005     0.005394
PD643   PD        0.612264    0.268615    0.218016     0.005394
PD644   PD        0.647204    0.231779    0.220455     0.005394
AU645   AU        0.649797    0.267474    0.253931     0.007504
AU646   AU        0.683914    0.236661    0.255030     0.007504
AU647   AU        0.680396    0.268716    0.216161     0.007504
PD648   PD        0.718081    0.234708    0.221505     0.005394
AU649   AU        0.717513    0.269340    0.254748     0.007504
PD650   PD        0.749492    0.235596    0.254190     0.005394
PD651   PD        0.753655    0.269437    0.218881     0.005394
PD652   PD        0.785779    0.269025    0.252778     0.005394
PD653   PD        0.077251    0.336483    0.254726     0.005394
PD654   PD        0.111687    0.301251    0.254619     0.005394
PD655   PD        0.112571    0.334400    0.222139     0.005394
PD656   PD        0.145085    0.302566    0.219227     0.005394
PD657   PD        0.145574    0.335479    0.252329     0.005394
AU658   AU        0.182100    0.302268    0.255952     0.007504
PD659   PD        0.185073    0.335315    0.217925     0.005394
AU660   AU        0.217357    0.301380    0.221341     0.007504
AU661   AU        0.219142    0.335281    0.256511     0.007504
AU662   AU        0.252545    0.300675    0.254593     0.007504
AU663   AU        0.253743    0.332766    0.219420     0.007504
AU664   AU        0.289975    0.302212    0.219837     0.007504
AU665   AU        0.287531    0.335941    0.254937     0.007504
AU666   AU        0.325654    0.301316    0.254234     0.007504
AU667   AU        0.322854    0.335598    0.219802     0.007504
AU668   AU        0.360625    0.303993    0.217684     0.007504
AU669   AU        0.361671    0.336483    0.253660     0.007504
AU670   AU        0.397013    0.301949    0.253526     0.007504
AU671   AU        0.397521    0.336421    0.218161     0.007504
AU672   AU        0.432710    0.302594    0.216081     0.007504
AU673   AU        0.433608    0.336092    0.252478     0.007504
AU674   AU        0.469944    0.302572    0.256236     0.007504
AU675   AU        0.468661    0.334033    0.218677     0.007504
AU676   AU        0.506818    0.300871    0.219337     0.007504
AU677   AU        0.505126    0.334673    0.252905     0.007504
AU678   AU        0.542928    0.302361    0.254664     0.007504
AU679   AU        0.541914    0.335898    0.219387     0.007504
PD680   PD        0.577869    0.304159    0.217732     0.005394
AU681   AU        0.578391    0.336527    0.255114     0.007504
AU682   AU        0.615457    0.301077    0.255501     0.007504
AU683   AU        0.613152    0.335086    0.217531     0.007504
AU684   AU        0.648974    0.302565    0.219221     0.007504
AU685   AU        0.647576    0.334684    0.251695     0.007504
AU686   AU        0.682019    0.302960    0.253838     0.007504
AU687   AU        0.684229    0.334833    0.219317     0.007504
AU688   AU        0.717426    0.299600    0.218746     0.007504
AU689   AU        0.717696    0.333047    0.255030     0.007504
PD690   PD        0.752577    0.301962    0.251009     0.005394
AU691   AU        0.753867    0.333121    0.218063     0.007504
PD692   PD        0.791086    0.335413    0.252799     0.005394
PD693   PD        0.046375    0.371451    0.255129     0.005394
PD694   PD        0.079079    0.371933    0.219081     0.005394
PD695   PD        0.076687    0.403366    0.257647     0.005394
AU696   AU        0.110704    0.369611    0.255832     0.007504
PD697   PD        0.113479    0.400499    0.215996     0.005394
PD698   PD        0.144861    0.367613    0.218418     0.005394
AU699   AU        0.146931    0.403071    0.253931     0.007504
PD700   PD        0.179151    0.372659    0.251588     0.005394
PD701   PD        0.178740    0.404259    0.218767     0.005394
PD702   PD        0.219056    0.366321    0.219044     0.005394
PD703   PD        0.218708    0.401872    0.254815     0.005394
AU704   AU        0.255396    0.370244    0.253375     0.007504
AU705   AU        0.252499    0.404991    0.218933     0.007504
AU706   AU        0.286160    0.370628    0.216459     0.007504
AU707   AU        0.287506    0.402734    0.253038     0.007504
AU708   AU        0.324484    0.369753    0.254312     0.007504
AU709   AU        0.326016    0.402555    0.218027     0.007504
AU710   AU        0.361126    0.368187    0.218987     0.007504
AU711   AU        0.360450    0.402537    0.255188     0.007504
AU712   AU        0.398972    0.370628    0.254694     0.007504
AU713   AU        0.394885    0.402826    0.219200     0.007504
AU714   AU        0.433930    0.369403    0.216897     0.007504
AU715   AU        0.433028    0.401127    0.252331     0.007504
AU716   AU        0.470555    0.367669    0.252918     0.007504
AU717   AU        0.469227    0.401234    0.217580     0.007504
AU718   AU        0.507876    0.368853    0.218331     0.007504
AU719   AU        0.506461    0.402322    0.253636     0.007504
AU720   AU        0.543225    0.366574    0.254029     0.007504
AU721   AU        0.543348    0.401493    0.216054     0.007504
AU722   AU        0.576980    0.367446    0.218157     0.007504
AU723   AU        0.574407    0.402270    0.254115     0.007504
AU724   AU        0.612151    0.367925    0.252834     0.007504
AU725   AU        0.611118    0.402486    0.217586     0.007504
AU726   AU        0.646462    0.367509    0.216063     0.007504
AU727   AU        0.648233    0.400364    0.253169     0.007504
AU728   AU        0.681586    0.367760    0.255878     0.007504
AU729   AU        0.683969    0.401003    0.217855     0.007504
AU730   AU        0.718479    0.368780    0.222066     0.007504
PD731   PD        0.718227    0.400604    0.254118     0.005394
AU732   AU        0.754800    0.365401    0.254868     0.007504
PD733   PD        0.754146    0.401839    0.218402     0.005394
PD734   PD        0.785260    0.367407    0.219393     0.005394
AU735   AU        0.789024    0.399403    0.252689     0.007504
PD736   PD        0.826482    0.368986    0.256241     0.005394
PD737   PD        0.000765    0.478398    0.252947     0.005394
PD738   PD        0.075872    0.436504    0.220808     0.005394
PD739   PD        0.077022    0.467442    0.254031     0.005394
PD740   PD        0.112003    0.435839    0.255253     0.005394
PD741   PD        0.110739    0.471817    0.216888     0.005394
AU742   AU        0.146885    0.439085    0.218488     0.007504
AU743   AU        0.148258    0.471066    0.251205     0.007504
AU744   AU        0.180205    0.436440    0.253442     0.007504
AU745   AU        0.182484    0.469901    0.218061     0.007504
AU746   AU        0.217157    0.435568    0.218786     0.007504
AU747   AU        0.217402    0.468805    0.253525     0.007504
AU748   AU        0.251608    0.436429    0.256422     0.007504
AU749   AU        0.251597    0.469684    0.216636     0.007504
AU750   AU        0.287816    0.437758    0.217141     0.007504
AU751   AU        0.289486    0.469743    0.252292     0.007504
AU752   AU        0.324435    0.434765    0.253104     0.007504
AU753   AU        0.325901    0.470215    0.218420     0.007504
AU754   AU        0.359413    0.437026    0.217866     0.007504
AU755   AU        0.361207    0.470952    0.253066     0.007504
AU756   AU        0.398583    0.435332    0.253086     0.007504
AU757   AU        0.395542    0.470146    0.218760     0.007504
AU758   AU        0.432060    0.437351    0.217119     0.007504
AU759   AU        0.431945    0.468984    0.254170     0.007504
AU760   AU        0.466812    0.435378    0.253511     0.007504
AU761   AU        0.467973    0.470675    0.220032     0.007504
AU762   AU        0.502864    0.435509    0.218745     0.007504
AU763   AU        0.502622    0.469613    0.253620     0.007504
AU764   AU        0.540599    0.436279    0.254255     0.007504
PD765   PD        0.541270    0.469760    0.217019     0.005394
PD766   PD        0.577575    0.437381    0.217106     0.005394
AU767   AU        0.577355    0.470759    0.254438     0.007504
AU768   AU        0.613055    0.433812    0.253723     0.007504
AU769   AU        0.614456    0.467669    0.219891     0.007504
AU770   AU        0.646996    0.434710    0.217417     0.007504
AU771   AU        0.648865    0.468658    0.255048     0.007504
AU772   AU        0.684083    0.433510    0.252462     0.007504
PD773   PD        0.682818    0.465582    0.217518     0.005394
AU774   AU        0.718709    0.434747    0.218508     0.007504
AU775   AU        0.719813    0.468468    0.254154     0.007504
AU776   AU        0.753955    0.434783    0.253771     0.007504
AU777   AU        0.753337    0.468229    0.219998     0.007504
PD778   PD        0.790098    0.435491    0.221502     0.005394
PD779   PD        0.787363    0.469121    0.253453     0.005394
PD780   PD        0.819591    0.435476    0.252379     0.005394
PD781   PD        0.043466    0.539274    0.217473     0.005394
PD782   PD        0.074980    0.502384    0.220026     0.005394
PD783   PD        0.075208    0.535152    0.255632     0.005394
PD784   PD        0.113090    0.502891    0.252229     0.005394
PD785   PD        0.110278    0.535780    0.219037     0.005394
PD786   PD        0.146557    0.502319    0.218501     0.005394
PD787   PD        0.147840    0.540034    0.256106     0.005394
PD788   PD        0.181187    0.503319    0.252161     0.005394
PD789   PD        0.179694    0.538289    0.218483     0.005394
PD790   PD        0.217495    0.502081    0.218342     0.005394
PD791   PD        0.219029    0.536475    0.255883     0.005394
PD792   PD        0.250200    0.502911    0.254942     0.005394
PD793   PD        0.253626    0.539207    0.218490     0.005394
AU794   AU        0.289590    0.502736    0.219236     0.007504
AU795   AU        0.286856    0.538970    0.254163     0.007504
AU796   AU        0.324372    0.503366    0.254384     0.007504
AU797   AU        0.326301    0.540166    0.218946     0.007504
AU798   AU        0.359483    0.505651    0.217742     0.007504
AU799   AU        0.361530    0.538378    0.253705     0.007504
AU800   AU        0.395523    0.503336    0.254071     0.007504
AU801   AU        0.395861    0.536882    0.216056     0.007504
PD802   PD        0.432619    0.503502    0.219868     0.005394
AU803   AU        0.432159    0.538037    0.253427     0.007504
AU804   AU        0.467678    0.502963    0.256662     0.007504
AU805   AU        0.467202    0.539592    0.218743     0.007504
AU806   AU        0.504552    0.505273    0.220797     0.007504
AU807   AU        0.505516    0.538754    0.252772     0.007504
AU808   AU        0.542174    0.503391    0.253297     0.007504
AU809   AU        0.540449    0.538288    0.218736     0.007504
AU810   AU        0.577990    0.502476    0.218433     0.007504
AU811   AU        0.573888    0.536465    0.254144     0.007504
AU812   AU        0.613083    0.501638    0.253821     0.007504
PD813   PD        0.611500    0.536333    0.216563     0.005394
PD814   PD        0.650336    0.502881    0.219479     0.005394
AU815   AU        0.650053    0.535747    0.253540     0.007504
PD816   PD        0.685483    0.504038    0.254098     0.005394
AU817   AU        0.686586    0.536424    0.217925     0.007504
AU818   AU        0.718413    0.502546    0.220078     0.007504
PD819   PD        0.720165    0.536880    0.253412     0.005394
AU820   AU        0.753011    0.501710    0.252369     0.007504
PD821   PD        0.751614    0.537438    0.216911     0.005394
PD822   PD        0.788010    0.501793    0.219422     0.005394
PD823   PD        0.788616    0.533471    0.251078     0.005394
PD824   PD        0.820802    0.501577    0.246740     0.005394
PD825   PD        0.075449    0.603588    0.257423     0.005394
PD826   PD        0.111015    0.571670    0.254301     0.005394
PD827   PD        0.110143    0.603818    0.221199     0.005394
PD828   PD        0.147011    0.568900    0.218863     0.005394
PD829   PD        0.145477    0.601936    0.252512     0.005394
AU830   AU        0.183721    0.571766    0.255107     0.007504
PD831   PD        0.179790    0.602687    0.218973     0.005394
AU832   AU        0.217407    0.570563    0.218632     0.007504
AU833   AU        0.219232    0.605709    0.254302     0.007504
AU834   AU        0.252053    0.572262    0.253399     0.007504
PD835   PD        0.253591    0.605237    0.218731     0.005394
AU836   AU        0.289470    0.571708    0.219647     0.007504
AU837   AU        0.286898    0.602741    0.252931     0.007504
AU838   AU        0.325560    0.573428    0.254960     0.007504
AU839   AU        0.325618    0.605221    0.219220     0.007504
AU840   AU        0.362350    0.571912    0.219787     0.007504
AU841   AU        0.360841    0.605686    0.253018     0.007504
AU842   AU        0.397763    0.570179    0.253368     0.007504
AU843   AU        0.396771    0.606190    0.220407     0.007504
AU844   AU        0.431097    0.571324    0.218401     0.007504
AU845   AU        0.433825    0.605355    0.252284     0.007504
AU846   AU        0.465970    0.570223    0.254853     0.007504
AU847   AU        0.470059    0.605480    0.220187     0.007504
AU848   AU        0.504230    0.572017    0.218850     0.007504
AU849   AU        0.502250    0.603379    0.255878     0.007504
AU850   AU        0.539382    0.569955    0.254476     0.007504
AU851   AU        0.538363    0.603682    0.217670     0.007504
PD852   PD        0.574546    0.572645    0.219095     0.005394
PD853   PD        0.574467    0.605971    0.255554     0.005394
PD854   PD        0.614201    0.567348    0.250499     0.005394
AU855   AU        0.614250    0.604040    0.216072     0.007504
PD856   PD        0.649151    0.566023    0.216996     0.005394
PD857   PD        0.647389    0.602908    0.252554     0.005394
PD858   PD        0.681889    0.567099    0.256535     0.005394
PD859   PD        0.684168    0.602994    0.218322     0.005394
PD860   PD        0.718346    0.568708    0.219833     0.005394
AU861   AU        0.721244    0.600583    0.252858     0.007504
PD862   PD        0.755043    0.568445    0.251445     0.005394
PD863   PD        0.759041    0.601106    0.221804     0.005394
PD864   PD        0.788954    0.603194    0.256395     0.005394
PD865   PD        0.111124    0.637206    0.255282     0.005394
PD866   PD        0.144934    0.637901    0.220074     0.005394
PD867   PD        0.144214    0.672952    0.255314     0.005394
PD868   PD        0.180066    0.640026    0.255104     0.005394
AU869   AU        0.182342    0.671631    0.219695     0.007504
PD870   PD        0.216559    0.639464    0.222141     0.005394
AU871   AU        0.217462    0.672698    0.255690     0.007504
PD872   PD        0.254356    0.636688    0.255265     0.005394
PD873   PD        0.251585    0.669344    0.221496     0.005394
AU874   AU        0.287257    0.638368    0.217253     0.007504
AU875   AU        0.288523    0.671323    0.254696     0.007504
AU876   AU        0.325463    0.637931    0.255188     0.007504
AU877   AU        0.323500    0.668802    0.219476     0.007504
AU878   AU        0.361145    0.637917    0.217992     0.007504
AU879   AU        0.359388    0.671078    0.254115     0.007504
AU880   AU        0.398100    0.638389    0.253555     0.007504
AU881   AU        0.396055    0.671286    0.218460     0.007504
AU882   AU        0.430814    0.638612    0.218746     0.007504
AU883   AU        0.433409    0.669635    0.254024     0.007504
AU884   AU        0.465977    0.638903    0.253530     0.007504
PD885   PD        0.468272    0.669274    0.217408     0.005394
PD886   PD        0.504235    0.638659    0.218286     0.005394
AU887   AU        0.503279    0.670975    0.253057     0.007504
AU888   AU        0.540425    0.637404    0.253047     0.007504
AU889   AU        0.540890    0.672072    0.218355     0.007504
PD890   PD        0.576871    0.636606    0.218910     0.005394
AU891   AU        0.575369    0.671244    0.253253     0.007504
PD892   PD        0.612016    0.636985    0.256607     0.005394
PD893   PD        0.609594    0.667661    0.219613     0.005394
PD894   PD        0.647239    0.639161    0.217470     0.005394
PD895   PD        0.649598    0.669084    0.253857     0.005394
PD896   PD        0.682567    0.639250    0.252578     0.005394
PD897   PD        0.681838    0.670031    0.219725     0.005394
PD898   PD        0.719216    0.638981    0.218414     0.005394
PD899   PD        0.718686    0.669489    0.253894     0.005394
PD900   PD        0.755662    0.635050    0.259670     0.005394
AU901   AU        0.179334    0.702960    0.255387     0.007504
PD902   PD        0.218190    0.704994    0.214451     0.005394
PD903   PD        0.179802    0.737807    0.221531     0.005394
PD904   PD        0.252750    0.703502    0.253444     0.005394
PD905   PD        0.254009    0.736142    0.216490     0.005394
AU906   AU        0.289368    0.704101    0.219284     0.007504
AU907   AU        0.288559    0.736294    0.253135     0.007504
PD908   PD        0.325908    0.704507    0.255483     0.005394
AU909   AU        0.326304    0.734657    0.219056     0.007504
PD910   PD        0.360568    0.704147    0.218379     0.005394
PD911   PD        0.360766    0.734487    0.253106     0.005394
AU912   AU        0.397247    0.703909    0.254573     0.007504
PD913   PD        0.397747    0.733691    0.220144     0.005394
AU914   AU        0.432442    0.703027    0.218891     0.007504
AU915   AU        0.431617    0.737257    0.254313     0.007504
AU916   AU        0.467209    0.704740    0.253305     0.007504
PD917   PD        0.467427    0.736686    0.216765     0.005394
PD918   PD        0.504027    0.702426    0.217200     0.005394
PD919   PD        0.506119    0.735027    0.255087     0.005394
PD920   PD        0.540763    0.703454    0.254299     0.005394
PD921   PD        0.540071    0.737867    0.216700     0.005394
PD922   PD        0.574526    0.703835    0.216332     0.005394
PD923   PD        0.573989    0.735590    0.253178     0.005394
PD924   PD        0.610583    0.703488    0.255970     0.005394
PD925   PD        0.609184    0.734062    0.220060     0.005394
PD926   PD        0.643919    0.701658    0.220488     0.005394
PD927   PD        0.647277    0.732404    0.253330     0.005394
PD928   PD        0.682528    0.702407    0.258809     0.005394
PD929   PD        0.250035    0.767624    0.252029     0.005394
PD930   PD        0.326449    0.770099    0.256444     0.005394
PD931   PD        0.358289    0.768967    0.220747     0.005394
PD932   PD        0.332445    0.804876    0.206914     0.005394
PD933   PD        0.396474    0.767227    0.255053     0.005394
PD934   PD        0.434002    0.771063    0.218935     0.005394
PD935   PD        0.431718    0.802647    0.255872     0.005394
PD936   PD        0.466718    0.768587    0.256543     0.005394
PD937   PD        0.504992    0.766287    0.220627     0.005394
PD938   PD        0.503700    0.802670    0.256581     0.005394
PD939   PD        0.539904    0.767350    0.254928     0.005394
PD940   PD        0.611776    0.769470    0.254850     0.005394
PD941   PD        0.289127    0.035696    0.367896     0.005394
PD942   PD        0.325014    0.071376    0.295083     0.005394
PD943   PD        0.349128    0.041830    0.279353     0.005394
PD944   PD        0.399229    0.072564    0.292484     0.005394
PD945   PD        0.435533    0.066381    0.327599     0.005394
PD946   PD        0.467988    0.072925    0.291516     0.005394
PD947   PD        0.502521    0.070906    0.327778     0.005394
PD948   PD        0.540039    0.067893    0.290302     0.005394
PD949   PD        0.577590    0.070183    0.327217     0.005394
PD950   PD        0.148827    0.135427    0.328939     0.005394
PD951   PD        0.220321    0.138605    0.329276     0.005394
PD952   PD        0.253658    0.102069    0.327882     0.005394
PD953   PD        0.255103    0.135187    0.290920     0.005394
PD954   PD        0.290607    0.105974    0.290921     0.005394
PD955   PD        0.289483    0.134802    0.325546     0.005394
PD956   PD        0.325856    0.104678    0.328534     0.005394
PD957   PD        0.326139    0.135180    0.288511     0.005394
PD958   PD        0.360441    0.102698    0.291352     0.005394
PD959   PD        0.357902    0.135099    0.325666     0.005394
PD960   PD        0.398287    0.104079    0.327868     0.005394
PD961   PD        0.397833    0.135310    0.290835     0.005394
PD962   PD        0.432707    0.104873    0.289422     0.005394
PD963   PD        0.435505    0.134738    0.328827     0.005394
PD964   PD        0.470378    0.103706    0.326613     0.005394
AU965   AU        0.469368    0.137378    0.288364     0.007504
PD966   PD        0.505090    0.104614    0.290499     0.005394
PD967   PD        0.504895    0.137293    0.325261     0.005394
PD968   PD        0.540965    0.101647    0.330435     0.005394
AU969   AU        0.542944    0.136184    0.293837     0.007504
PD970   PD        0.578421    0.103368    0.296921     0.005394
PD971   PD        0.576456    0.138622    0.328809     0.005394
PD972   PD        0.611212    0.102396    0.328072     0.005394
PD973   PD        0.612479    0.136389    0.293889     0.005394
AU974   AU        0.650160    0.136215    0.325726     0.007504
PD975   PD        0.684284    0.134641    0.290583     0.005394
PD976   PD        0.113364    0.200702    0.291451     0.005394
PD977   PD        0.143144    0.136436    0.256254     0.005394
PD978   PD        0.148980    0.199359    0.325220     0.005394
AU979   AU        0.184626    0.168818    0.325757     0.007504
AU980   AU        0.181220    0.203166    0.291355     0.007504
PD981   PD        0.219610    0.167321    0.292579     0.005394
AU982   AU        0.216884    0.202102    0.327823     0.007504
PD983   PD        0.255990    0.169978    0.325292     0.005394
AU984   AU        0.251745    0.204245    0.291936     0.007504
PD985   PD        0.288214    0.168137    0.292823     0.005394
AU986   AU        0.287653    0.202417    0.326379     0.007504
PD987   PD        0.325577    0.169324    0.323315     0.005394
AU988   AU        0.322916    0.200741    0.290490     0.007504
PD989   PD        0.360178    0.168107    0.287883     0.005394
PD990   PD        0.360092    0.200865    0.322611     0.005394
PD991   PD        0.396227    0.168048    0.324908     0.005394
AU992   AU        0.397174    0.202040    0.289116     0.007504
AU993   AU        0.433582    0.169869    0.290579     0.007504
AU994   AU        0.433199    0.202495    0.326432     0.007504
AU995   AU        0.471303    0.169413    0.325646     0.007504
AU996   AU        0.467791    0.201083    0.290246     0.007504
AU997   AU        0.506387    0.168162    0.289433     0.007504
AU998   AU        0.505014    0.200310    0.324196     0.007504
PD999   PD        0.539591    0.168445    0.326743     0.005394
AU1000   AU        0.540679    0.201737    0.288164     0.007504
AU1001   AU        0.576404    0.167712    0.291008     0.007504
AU1002   AU        0.576629    0.200874    0.327404     0.007504
AU1003   AU        0.613929    0.168072    0.328012     0.007504
AU1004   AU        0.612565    0.198853    0.291003     0.007504
AU1005   AU        0.650114    0.167893    0.293092     0.007504
AU1006   AU        0.648562    0.201392    0.325443     0.007504
AU1007   AU        0.683304    0.167830    0.328091     0.007504
PD1008   PD        0.683802    0.200884    0.289443     0.005394
PD1009   PD        0.717397    0.170383    0.290884     0.005394
PD1010   PD        0.721136    0.200015    0.328560     0.005394
PD1011   PD        0.753319    0.205506    0.291793     0.005394
PD1012   PD        0.077026    0.269664    0.328211     0.005394
PD1013   PD        0.109404    0.234726    0.328739     0.005394
PD1014   PD        0.111163    0.269060    0.290689     0.005394
PD1015   PD        0.144936    0.232931    0.294531     0.005394
PD1016   PD        0.147816    0.267654    0.326032     0.005394
PD1017   PD        0.183736    0.234866    0.325518     0.005394
AU1018   AU        0.182578    0.266568    0.288333     0.007504
AU1019   AU        0.217353    0.233928    0.289395     0.007504
AU1020   AU        0.215812    0.268130    0.326023     0.007504
AU1021   AU        0.253739    0.235213    0.326481     0.007504
AU1022   AU        0.251813    0.266778    0.290142     0.007504
AU1023   AU        0.287841    0.234848    0.288637     0.007504
AU1024   AU        0.288345    0.266547    0.325687     0.007504
AU1025   AU        0.323903    0.233986    0.325489     0.007504
AU1026   AU        0.323675    0.266829    0.288727     0.007504
AU1027   AU        0.362042    0.236093    0.290455     0.007504
AU1028   AU        0.358200    0.267443    0.326778     0.007504
AU1029   AU        0.396612    0.233728    0.325341     0.007504
AU1030   AU        0.396503    0.266811    0.288572     0.007504
AU1031   AU        0.431703    0.234399    0.289354     0.007504
AU1032   AU        0.432916    0.266918    0.326280     0.007504
AU1033   AU        0.467889    0.233301    0.323761     0.007504
AU1034   AU        0.468041    0.267974    0.289855     0.007504
AU1035   AU        0.502654    0.233066    0.289994     0.007504
AU1036   AU        0.503993    0.266235    0.327204     0.007504
AU1037   AU        0.540793    0.233860    0.324742     0.007504
AU1038   AU        0.541161    0.266894    0.290275     0.007504
AU1039   AU        0.577957    0.233968    0.290518     0.007504
AU1040   AU        0.577730    0.266189    0.324800     0.007504
AU1041   AU        0.613060    0.233638    0.324551     0.007504
AU1042   AU        0.613859    0.267611    0.289377     0.007504
PD1043   PD        0.649072    0.234760    0.291062     0.005394
AU1044   AU        0.647947    0.266788    0.326553     0.007504
AU1045   AU        0.683966    0.234569    0.325849     0.007504
AU1046   AU        0.682660    0.267376    0.290095     0.007504
AU1047   AU        0.717862    0.236354    0.290937     0.007504
PD1048   PD        0.716645    0.266971    0.326009     0.005394
AU1049   AU        0.750858    0.234310    0.327913     0.007504
AU1050   AU        0.750785    0.267296    0.291248     0.007504
PD1051   PD        0.788868    0.269496    0.326259     0.005394
PD1052   PD        0.044838    0.301613    0.328125     0.005394
PD1053   PD        0.041613    0.339641    0.290454     0.005394
PD1054   PD        0.076162    0.300770    0.289404     0.005394
AU1055   AU        0.077344    0.336398    0.325136     0.007504
PD1056   PD        0.113265    0.303299    0.326831     0.005394
AU1057   AU        0.112624    0.335761    0.291997     0.007504
PD1058   PD        0.146138    0.304032    0.289616     0.005394
PD1059   PD        0.146538    0.335679    0.328012     0.005394
PD1060   PD        0.181476    0.302659    0.325140     0.005394
PD1061   PD        0.178968    0.334585    0.288402     0.005394
AU1062   AU        0.218864    0.301939    0.290594     0.007504
AU1063   AU        0.217939    0.336238    0.323968     0.007504
AU1064   AU        0.251834    0.300137    0.326128     0.007504
AU1065   AU        0.252960    0.336163    0.290995     0.007504
AU1066   AU        0.291195    0.301655    0.288627     0.007504
AU1067   AU        0.291558    0.336260    0.324825     0.007504
PD1068   PD        0.323393    0.299555    0.329269     0.005394
AU1069   AU        0.325171    0.337107    0.287686     0.007504
AU1070   AU        0.360960    0.299746    0.287146     0.007504
AU1071   AU        0.361572    0.335693    0.326966     0.007504
AU1072   AU        0.395742    0.299224    0.325435     0.007504
AU1073   AU        0.396942    0.334062    0.287179     0.007504
AU1074   AU        0.433196    0.302111    0.288890     0.007504
AU1075   AU        0.431085    0.335408    0.327109     0.007504
AU1076   AU        0.471101    0.300200    0.324218     0.007504
AU1077   AU        0.469971    0.333311    0.292119     0.007504
AU1078   AU        0.504698    0.300573    0.289095     0.007504
AU1079   AU        0.505582    0.333825    0.325165     0.007504
AU1080   AU        0.540517    0.301163    0.324137     0.007504
AU1081   AU        0.540328    0.335269    0.290170     0.007504
AU1082   AU        0.576697    0.299517    0.291190     0.007504
AU1083   AU        0.576221    0.333931    0.323089     0.007504
AU1084   AU        0.614135    0.300616    0.325345     0.007504
AU1085   AU        0.612143    0.333251    0.289470     0.007504
AU1086   AU        0.649084    0.299899    0.290309     0.007504
AU1087   AU        0.649181    0.333956    0.326182     0.007504
AU1088   AU        0.683528    0.299059    0.327163     0.007504
AU1089   AU        0.681592    0.332826    0.289553     0.007504
AU1090   AU        0.716634    0.299874    0.290735     0.007504
PD1091   PD        0.718044    0.332933    0.323437     0.005394
AU1092   AU        0.753501    0.300283    0.323389     0.007504
PD1093   PD        0.752967    0.332401    0.288181     0.005394
AU1094   AU        0.786613    0.299821    0.289684     0.007504
PD1095   PD        0.789822    0.331488    0.326795     0.005394
PD1096   PD        0.822027    0.298847    0.326139     0.005394
PD1097   PD        0.821960    0.333842    0.290076     0.005394
PD1098   PD        0.040886    0.370499    0.328161     0.005394
PD1099   PD        0.041684    0.403966    0.292023     0.005394
PD1100   PD        0.076945    0.369890    0.292522     0.005394
AU1101   AU        0.078481    0.403171    0.326546     0.007504
AU1102   AU        0.111641    0.370045    0.324812     0.007504
PD1103   PD        0.110899    0.403499    0.290147     0.005394
AU1104   AU        0.146094    0.370691    0.291151     0.007504
AU1105   AU        0.147197    0.401923    0.326987     0.007504
AU1106   AU        0.182558    0.369318    0.324095     0.007504
AU1107   AU        0.180615    0.403029    0.289234     0.007504
AU1108   AU        0.217478    0.370653    0.287871     0.007504
AU1109   AU        0.218498    0.402391    0.326395     0.007504
AU1110   AU        0.252190    0.367957    0.325683     0.007504
AU1111   AU        0.254196    0.403261    0.289296     0.007504
AU1112   AU        0.288311    0.370729    0.292185     0.007504
AU1113   AU        0.287608    0.403419    0.326675     0.007504
AU1114   AU        0.326448    0.370330    0.329647     0.007504
AU1115   AU        0.325087    0.402774    0.290957     0.007504
AU1116   AU        0.359854    0.367920    0.290671     0.007504
AU1117   AU        0.360650    0.404341    0.325209     0.007504
AU1118   AU        0.395161    0.367059    0.324588     0.007504
AU1119   AU        0.398031    0.401006    0.289255     0.007504
AU1120   AU        0.434288    0.367889    0.288489     0.007504
AU1121   AU        0.434299    0.401157    0.323779     0.007504
AU1122   AU        0.468228    0.369592    0.326274     0.007504
AU1123   AU        0.470277    0.401344    0.287980     0.007504
AU1124   AU        0.506231    0.367704    0.288071     0.007504
AU1125   AU        0.504138    0.402944    0.325784     0.007504
AU1126   AU        0.540035    0.368921    0.324850     0.007504
AU1127   AU        0.540590    0.401850    0.290665     0.007504
AU1128   AU        0.575807    0.367819    0.289929     0.007504
AU1129   AU        0.576626    0.403076    0.326468     0.007504
AU1130   AU        0.611880    0.368618    0.325423     0.007504
AU1131   AU        0.611299    0.400445    0.289905     0.007504
AU1132   AU        0.647629    0.366629    0.290250     0.007504
AU1133   AU        0.649419    0.403273    0.324339     0.007504
PD1134   PD        0.684419    0.365598    0.325494     0.005394
AU1135   AU        0.683731    0.401532    0.289314     0.007504
AU1136   AU        0.718127    0.367893    0.288094     0.007504
PD1137   PD        0.721138    0.400599    0.322777     0.005394
PD1138   PD        0.753777    0.365368    0.322199     0.005394
AU1139   AU        0.754566    0.402021    0.286989     0.007504
PD1140   PD        0.790995    0.370931    0.289374     0.005394
AU1141   AU        0.789911    0.402489    0.325018     0.007504
PD1142   PD        0.824977    0.368366    0.324942     0.005394
PD1143   PD        0.824257    0.400291    0.287638     0.005394
PD1144   PD        0.043328    0.434451    0.329642     0.005394
PD1145   PD        0.041789    0.467110    0.288606     0.005394
AU1146   AU        0.076993    0.436200    0.290613     0.007504
PD1147   PD        0.076403    0.468547    0.322887     0.005394
PD1148   PD        0.110562    0.437583    0.327588     0.005394
PD1149   PD        0.113928    0.467795    0.289904     0.005394
PD1150   PD        0.145967    0.435501    0.292815     0.005394
AU1151   AU        0.149788    0.471098    0.325657     0.007504
AU1152   AU        0.181743    0.434747    0.325748     0.007504
PD1153   PD        0.182643    0.469524    0.290663     0.005394
AU1154   AU        0.214617    0.436864    0.287836     0.007504
AU1155   AU        0.216767    0.471586    0.326506     0.007504
AU1156   AU        0.251540    0.437290    0.324029     0.007504
AU1157   AU        0.254810    0.470055    0.289032     0.007504
AU1158   AU        0.287601    0.437195    0.288404     0.007504
AU1159   AU        0.286496    0.471033    0.326624     0.007504
AU1160   AU        0.324231    0.436553    0.325344     0.007504
AU1161   AU        0.323246    0.470314    0.289165     0.007504
AU1162   AU        0.361775    0.435068    0.289328     0.007504
AU1163   AU        0.360693    0.470293    0.324802     0.007504
AU1164   AU        0.400461    0.435263    0.324871     0.007504
AU1165   AU        0.395169    0.468377    0.290105     0.007504
AU1166   AU        0.432698    0.433764    0.287362     0.007504
AU1167   AU        0.432131    0.469651    0.324111     0.007504
AU1168   AU        0.468650    0.434414    0.324752     0.007504
AU1169   AU        0.467761    0.468964    0.288795     0.007504
AU1170   AU        0.504635    0.434104    0.287505     0.007504
AU1171   AU        0.504507    0.470526    0.324340     0.007504
AU1172   AU        0.540262    0.434071    0.324332     0.007504
AU1173   AU        0.540778    0.469648    0.289057     0.007504
AU1174   AU        0.577042    0.437748    0.290060     0.007504
AU1175   AU        0.577391    0.469365    0.324178     0.007504
AU1176   AU        0.611583    0.435558    0.324676     0.007504
AU1177   AU        0.613832    0.469141    0.290393     0.007504
AU1178   AU        0.647590    0.433070    0.289084     0.007504
AU1179   AU        0.648690    0.467379    0.325400     0.007504
AU1180   AU        0.682806    0.436851    0.325066     0.007504
AU1181   AU        0.684988    0.469272    0.288962     0.007504
AU1182   AU        0.718801    0.433987    0.290297     0.007504
AU1183   AU        0.718656    0.468382    0.325580     0.007504
PD1184   PD        0.751896    0.434271    0.327762     0.005394
PD1185   PD        0.754025    0.468540    0.287394     0.005394
PD1186   PD        0.785517    0.434365    0.289050     0.005394
PD1187   PD        0.784697    0.467041    0.326231     0.005394
PD1188   PD        0.824159    0.432928    0.322962     0.005394
PD1189   PD        0.823911    0.469218    0.287040     0.005394
PD1190   PD        0.003872    0.538409    0.322737     0.005394
PD1191   PD        0.032739    0.526102    0.287072     0.005394
PD1192   PD        0.078665    0.502110    0.287591     0.005394
PD1193   PD        0.077758    0.536951    0.325133     0.005394
PD1194   PD        0.111176    0.503592    0.326461     0.005394
PD1195   PD        0.113257    0.540119    0.288898     0.005394
PD1196   PD        0.148574    0.501530    0.289007     0.005394
AU1197   AU        0.146054    0.540374    0.325352     0.007504
AU1198   AU        0.184680    0.505290    0.327639     0.007504
AU1199   AU        0.182830    0.539509    0.291235     0.007504
AU1200   AU        0.217189    0.504774    0.291638     0.007504
AU1201   AU        0.217746    0.537778    0.327030     0.007504
AU1202   AU        0.253331    0.506347    0.327241     0.007504
AU1203   AU        0.253402    0.539093    0.290003     0.007504
AU1204   AU        0.287403    0.503353    0.288104     0.007504
AU1205   AU        0.288246    0.538300    0.325630     0.007504
AU1206   AU        0.322903    0.505497    0.324452     0.007504
AU1207   AU        0.322664    0.538142    0.287630     0.007504
AU1208   AU        0.360467    0.503942    0.288318     0.007504
AU1209   AU        0.361543    0.538084    0.326126     0.007504
AU1210   AU        0.397253    0.503556    0.324761     0.007504
AU1211   AU        0.397769    0.538650    0.287983     0.007504
AU1212   AU        0.431158    0.505046    0.291196     0.007504
AU1213   AU        0.432815    0.539125    0.326038     0.007504
AU1214   AU        0.467816    0.502419    0.324925     0.007504
AU1215   AU        0.468036    0.537055    0.290148     0.007504
AU1216   AU        0.506461    0.502512    0.287949     0.007504
AU1217   AU        0.502989    0.536221    0.324958     0.007504
AU1218   AU        0.542151    0.503041    0.324620     0.007504
AU1219   AU        0.539962    0.537498    0.290109     0.007504
AU1220   AU        0.575921    0.501875    0.288220     0.007504
AU1221   AU        0.576020    0.535985    0.323891     0.007504
AU1222   AU        0.611990    0.502942    0.325717     0.007504
AU1223   AU        0.613870    0.536153    0.286923     0.007504
AU1224   AU        0.649182    0.502013    0.288011     0.007504
AU1225   AU        0.647309    0.534541    0.323162     0.007504
AU1226   AU        0.684086    0.502578    0.325189     0.007504
AU1227   AU        0.685125    0.534390    0.290037     0.007504
AU1228   AU        0.719522    0.501229    0.290361     0.007504
AU1229   AU        0.720717    0.532922    0.325261     0.007504
AU1230   AU        0.754690    0.501120    0.324525     0.007504
AU1231   AU        0.753323    0.533111    0.287920     0.007504
PD1232   PD        0.788509    0.498623    0.289086     0.005394
AU1233   AU        0.790151    0.534052    0.324599     0.007504
PD1234   PD        0.823956    0.499891    0.322122     0.005394
PD1235   PD        0.823883    0.532620    0.287573     0.005394
PD1236   PD        0.045231    0.572440    0.325963     0.005394
AU1237   AU        0.076992    0.568554    0.289785     0.007504
PD1238   PD        0.077053    0.604528    0.329275     0.005394
AU1239   AU        0.109997    0.572966    0.328834     0.007504
PD1240   PD        0.112511    0.608146    0.293145     0.005394
PD1241   PD        0.148098    0.575171    0.289735     0.005394
PD1242   PD        0.147543    0.605540    0.325619     0.005394
AU1243   AU        0.182897    0.572411    0.327186     0.007504
PD1244   PD        0.182712    0.606793    0.290526     0.005394
PD1245   PD        0.220492    0.572170    0.292085     0.005394
AU1246   AU        0.216938    0.605948    0.326335     0.007504
AU1247   AU        0.254117    0.572657    0.327531     0.007504
AU1248   AU        0.255038    0.604363    0.291074     0.007504
AU1249   AU        0.289545    0.570699    0.290377     0.007504
AU1250   AU        0.288173    0.606709    0.325785     0.007504
AU1251   AU        0.324070    0.571579    0.324384     0.007504
AU1252   AU        0.321903    0.604565    0.288587     0.007504
AU1253   AU        0.357846    0.571016    0.289505     0.007504
AU1254   AU        0.360798    0.604374    0.324573     0.007504
AU1255   AU        0.396666    0.570724    0.324283     0.007504
AU1256   AU        0.397597    0.605214    0.286872     0.007504
AU1257   AU        0.431146    0.570211    0.290458     0.007504
AU1258   AU        0.429557    0.603631    0.326073     0.007504
AU1259   AU        0.468611    0.572630    0.324684     0.007504
AU1260   AU        0.466710    0.604956    0.291341     0.007504
AU1261   AU        0.503345    0.571636    0.290837     0.007504
AU1262   AU        0.503350    0.603263    0.325250     0.007504
AU1263   AU        0.539050    0.569444    0.324449     0.007504
AU1264   AU        0.539544    0.606094    0.290776     0.007504
AU1265   AU        0.576182    0.570075    0.291524     0.007504
AU1266   AU        0.575851    0.603994    0.326389     0.007504
AU1267   AU        0.611897    0.568924    0.327646     0.007504
PD1268   PD        0.610775    0.604148    0.292545     0.005394
PD1269   PD        0.650224    0.568947    0.291733     0.005394
PD1270   PD        0.644793    0.602882    0.327218     0.005394
AU1271   AU        0.685890    0.569628    0.322576     0.007504
PD1272   PD        0.685847    0.601644    0.287892     0.005394
AU1273   AU        0.720562    0.569528    0.288375     0.007504
PD1274   PD        0.722163    0.600730    0.326611     0.005394
AU1275   AU        0.753353    0.566644    0.322297     0.007504
PD1276   PD        0.752683    0.602534    0.290064     0.005394
PD1277   PD        0.787075    0.567791    0.288649     0.005394
PD1278   PD        0.791008    0.597790    0.323142     0.005394
PD1279   PD        0.825954    0.566154    0.321659     0.005394
PD1280   PD        0.114294    0.636810    0.328417     0.005394
PD1281   PD        0.110695    0.674140    0.290601     0.005394
PD1282   PD        0.146787    0.638336    0.288351     0.005394
PD1283   PD        0.150152    0.668649    0.328570     0.005394
AU1284   AU        0.181656    0.640044    0.326234     0.007504
AU1285   AU        0.182176    0.671436    0.290190     0.007504
PD1286   PD        0.218935    0.637551    0.291269     0.005394
AU1287   AU        0.216711    0.672967    0.327826     0.007504
AU1288   AU        0.250905    0.638163    0.325700     0.007504
PD1289   PD        0.249848    0.670671    0.290536     0.005394
AU1290   AU        0.288479    0.639427    0.291443     0.007504
AU1291   AU        0.288902    0.671443    0.327853     0.007504
AU1292   AU        0.325732    0.639155    0.324792     0.007504
PD1293   PD        0.324463    0.673341    0.290293     0.005394
AU1294   AU        0.359326    0.636986    0.290007     0.007504
AU1295   AU        0.359107    0.671381    0.327989     0.007504
AU1296   AU        0.397922    0.638744    0.326130     0.007504
AU1297   AU        0.396211    0.671631    0.287666     0.007504
AU1298   AU        0.433116    0.638386    0.288533     0.007504
AU1299   AU        0.434359    0.672598    0.324870     0.007504
AU1300   AU        0.468854    0.637147    0.326065     0.007504
AU1301   AU        0.469460    0.671559    0.289381     0.007504
AU1302   AU        0.502431    0.637709    0.289319     0.007504
AU1303   AU        0.505879    0.671449    0.326018     0.007504
AU1304   AU        0.539357    0.639802    0.324306     0.007504
PD1305   PD        0.538850    0.669029    0.288026     0.005394
AU1306   AU        0.574538    0.638493    0.290078     0.007504
AU1307   AU        0.575463    0.671260    0.327255     0.007504
AU1308   AU        0.610946    0.638601    0.325522     0.007504
AU1309   AU        0.611096    0.670260    0.291195     0.007504
PD1310   PD        0.648855    0.637400    0.292554     0.005394
AU1311   AU        0.645412    0.672060    0.324307     0.007504
PD1312   PD        0.682573    0.635484    0.324861     0.005394
PD1313   PD        0.682575    0.670806    0.287931     0.005394
PD1314   PD        0.715674    0.634392    0.288988     0.005394
PD1315   PD        0.717916    0.670193    0.326912     0.005394
PD1316   PD        0.757891    0.635080    0.325920     0.005394
PD1317   PD        0.792732    0.634930    0.292021     0.005394
PD1318   PD        0.147371    0.702959    0.291271     0.005394
AU1319   AU        0.182971    0.703684    0.326488     0.007504
PD1320   PD        0.184837    0.735929    0.293840     0.005394
AU1321   AU        0.216521    0.703758    0.291023     0.007504
AU1322   AU        0.219725    0.734586    0.327108     0.007504
PD1323   PD        0.251012    0.704927    0.325080     0.005394
PD1324   PD        0.252682    0.736373    0.290151     0.005394
AU1325   AU        0.287244    0.703390    0.288313     0.007504
PD1326   PD        0.289782    0.736835    0.324913     0.005394
AU1327   AU        0.323199    0.703255    0.327777     0.007504
PD1328   PD        0.324535    0.735514    0.289825     0.005394
AU1329   AU        0.361788    0.703587    0.290973     0.007504
AU1330   AU        0.362202    0.735593    0.328039     0.007504
AU1331   AU        0.398494    0.705554    0.325206     0.007504
AU1332   AU        0.395106    0.735315    0.288770     0.007504
PD1333   PD        0.432878    0.703440    0.289715     0.005394
AU1334   AU        0.433259    0.737235    0.324341     0.007504
AU1335   AU        0.469878    0.704673    0.323626     0.007504
PD1336   PD        0.468087    0.737101    0.291137     0.005394
AU1337   AU        0.504962    0.704828    0.289213     0.007504
AU1338   AU        0.504837    0.736695    0.325756     0.007504
AU1339   AU        0.539127    0.704167    0.326422     0.007504
AU1340   AU        0.542133    0.736944    0.289771     0.007504
AU1341   AU        0.576298    0.703461    0.289029     0.007504
PD1342   PD        0.574233    0.736778    0.324915     0.005394
AU1343   AU        0.611888    0.702809    0.324194     0.007504
PD1344   PD        0.611997    0.737287    0.288260     0.005394
PD1345   PD        0.646574    0.701847    0.290264     0.005394
PD1346   PD        0.646743    0.736811    0.320956     0.005394
PD1347   PD        0.682840    0.704948    0.322569     0.005394
PD1348   PD        0.679639    0.739286    0.287103     0.005394
PD1349   PD        0.720164    0.702164    0.292593     0.005394
PD1350   PD        0.253817    0.769208    0.322917     0.005394
PD1351   PD        0.291759    0.765706    0.290048     0.005394
PD1352   PD        0.215705    0.800544    0.243250     0.005394
PD1353   PD        0.328353    0.771129    0.326473     0.005394
PD1354   PD        0.327900    0.801561    0.288769     0.005394
AU1355   AU        0.360842    0.768008    0.289024     0.007504
PD1356   PD        0.362047    0.801714    0.327117     0.005394
PD1357   PD        0.394554    0.766794    0.325533     0.005394
PD1358   PD        0.395941    0.799261    0.292899     0.005394
PD1359   PD        0.430958    0.770647    0.293963     0.005394
PD1360   PD        0.432154    0.801047    0.327596     0.005394
PD1361   PD        0.466203    0.770169    0.326404     0.005394
PD1362   PD        0.465757    0.802763    0.287602     0.005394
PD1363   PD        0.504823    0.766983    0.289074     0.005394
PD1364   PD        0.502105    0.800117    0.323975     0.005394
AU1365   AU        0.539550    0.770460    0.325905     0.007504
PD1366   PD        0.538823    0.801959    0.288947     0.005394
PD1367   PD        0.574252    0.769895    0.289571     0.005394
PD1368   PD        0.575853    0.800139    0.327557     0.005394
PD1369   PD        0.613695    0.768068    0.326525     0.005394
PD1370   PD        0.255296    0.067295    0.366460     0.005394
PD1371   PD        0.291113    0.070431    0.398874     0.005394
PD1372   PD        0.323613    0.072131    0.360161     0.005394
PD1373   PD        0.360115    0.067783    0.399766     0.005394
PD1374   PD        0.397487    0.037740    0.401768     0.005394
PD1375   PD        0.398723    0.072023    0.361489     0.005394
PD1376   PD        0.433905    0.034655    0.371047     0.005394
PD1377   PD        0.433325    0.072151    0.397644     0.005394
PD1378   PD        0.504793    0.004782    0.472471     0.005394
PD1379   PD        0.468271    0.067344    0.364820     0.005394
PD1380   PD        0.504699    0.069799    0.400654     0.005394
PD1381   PD        0.540100    0.068991    0.361435     0.005394
PD1382   PD        0.574847    0.070277    0.401229     0.005394
PD1383   PD        0.602580    0.028677    0.337481     0.005394
PD1384   PD        0.150326    0.135819    0.396611     0.005394
PD1385   PD        0.184191    0.104326    0.396565     0.005394
PD1386   PD        0.184749    0.138096    0.364075     0.005394
PD1387   PD        0.220506    0.106012    0.364803     0.005394
AU1388   AU        0.220723    0.135293    0.399862     0.007504
PD1389   PD        0.254382    0.104275    0.398037     0.005394
PD1390   PD        0.254027    0.137668    0.364455     0.005394
PD1391   PD        0.289601    0.106749    0.362667     0.005394
PD1392   PD        0.289068    0.138798    0.398382     0.005394
PD1393   PD        0.325485    0.104195    0.399477     0.005394
PD1394   PD        0.325199    0.138378    0.361252     0.005394
AU1395   AU        0.360212    0.102717    0.364109     0.007504
AU1396   AU        0.362346    0.135162    0.399730     0.007504
PD1397   PD        0.395833    0.100462    0.398170     0.005394
PD1398   PD        0.397798    0.136954    0.364326     0.005394
PD1399   PD        0.434400    0.101756    0.361733     0.005394
AU1400   AU        0.434336    0.136022    0.400653     0.007504
AU1401   AU        0.469302    0.103537    0.399435     0.007504
PD1402   PD        0.472467    0.136150    0.364109     0.005394
PD1403   PD        0.504804    0.102572    0.360727     0.005394
AU1404   AU        0.505750    0.134634    0.397528     0.007504
AU1405   AU        0.541219    0.102215    0.399173     0.007504
PD1406   PD        0.541595    0.136727    0.361682     0.005394
PD1407   PD        0.575899    0.106528    0.363179     0.005394
AU1408   AU        0.575825    0.135536    0.398369     0.007504
PD1409   PD        0.613116    0.105260    0.396494     0.005394
PD1410   PD        0.615366    0.135871    0.361338     0.005394
PD1411   PD        0.649512    0.104611    0.363974     0.005394
AU1412   AU        0.648514    0.136529    0.399321     0.007504
PD1413   PD        0.682748    0.100650    0.397954     0.005394
PD1414   PD        0.679893    0.135614    0.362882     0.005394
PD1415   PD        0.718696    0.137307    0.394615     0.005394
PD1416   PD        0.042205    0.237007    0.401256     0.005394
PD1417   PD        0.110812    0.169626    0.398491     0.005394
PD1418   PD        0.109274    0.199852    0.365293     0.005394
PD1419   PD        0.146964    0.167680    0.363033     0.005394
PD1420   PD        0.147530    0.202992    0.399997     0.005394
AU1421   AU        0.181835    0.170789    0.397896     0.007504
PD1422   PD        0.181054    0.202995    0.362365     0.005394
AU1423   AU        0.216759    0.169660    0.364137     0.007504
PD1424   PD        0.216994    0.202004    0.399915     0.005394
PD1425   PD        0.253820    0.170516    0.398427     0.005394
AU1426   AU        0.252022    0.202274    0.361246     0.007504
AU1427   AU        0.287694    0.169142    0.362896     0.007504
AU1428   AU        0.287797    0.201455    0.397415     0.007504
AU1429   AU        0.324548    0.168870    0.399741     0.007504
AU1430   AU        0.325226    0.202767    0.361543     0.007504
PD1431   PD        0.362687    0.169521    0.363737     0.005394
AU1432   AU        0.361239    0.201390    0.400652     0.007504
PD1433   PD        0.395126    0.169446    0.398985     0.005394
AU1434   AU        0.395422    0.204312    0.363099     0.007504
PD1435   PD        0.428462    0.172375    0.363861     0.005394
AU1436   AU        0.431767    0.201665    0.398002     0.007504
AU1437   AU        0.470224    0.168189    0.399459     0.007504
AU1438   AU        0.469638    0.200382    0.360598     0.007504
AU1439   AU        0.504770    0.167728    0.362377     0.007504
PD1440   PD        0.502200    0.201290    0.398448     0.005394
AU1441   AU        0.539888    0.167941    0.399088     0.007504
PD1442   PD        0.537588    0.201963    0.360958     0.005394
PD1443   PD        0.577934    0.168845    0.363920     0.005394
PD1444   PD        0.579444    0.200186    0.398787     0.005394
AU1445   AU        0.612539    0.168371    0.396509     0.007504
AU1446   AU        0.612459    0.201280    0.362482     0.007504
AU1447   AU        0.646783    0.169628    0.361866     0.007504
AU1448   AU        0.647522    0.202546    0.397623     0.007504
AU1449   AU        0.681929    0.169993    0.395259     0.007504
AU1450   AU        0.682913    0.202160    0.360102     0.007504
PD1451   PD        0.716049    0.100148    0.363100     0.005394
AU1452   AU        0.720222    0.200095    0.396577     0.007504
PD1453   PD        0.757991    0.165842    0.403518     0.005394
PD1454   PD        0.755870    0.202511    0.363265     0.005394
PD1455   PD        0.788650    0.204384    0.397795     0.005394
PD1456   PD        0.033883    0.273795    0.372313     0.005394
PD1457   PD        0.078197    0.237029    0.362240     0.005394
PD1458   PD        0.075813    0.270442    0.399281     0.005394
PD1459   PD        0.111465    0.236896    0.398206     0.005394
PD1460   PD        0.111966    0.272133    0.360630     0.005394
AU1461   AU        0.147427    0.235855    0.359771     0.007504
PD1462   PD        0.144040    0.268174    0.399941     0.005394
AU1463   AU        0.184836    0.236929    0.398199     0.007504
AU1464   AU        0.181259    0.266760    0.362198     0.007504
AU1465   AU        0.217727    0.233079    0.361457     0.007504
AU1466   AU        0.218937    0.267545    0.397798     0.007504
AU1467   AU        0.252446    0.235162    0.395732     0.007504
AU1468   AU        0.253403    0.267653    0.362796     0.007504
AU1469   AU        0.288349    0.235092    0.363136     0.007504
AU1470   AU        0.288428    0.266533    0.397689     0.007504
AU1471   AU        0.322776    0.235027    0.398232     0.007504
AU1472   AU        0.324041    0.268643    0.363852     0.007504
AU1473   AU        0.359626    0.234294    0.364087     0.007504
AU1474   AU        0.359797    0.268132    0.397417     0.007504
AU1475   AU        0.396037    0.234084    0.398937     0.007504
AU1476   AU        0.397890    0.264994    0.361455     0.007504
AU1477   AU        0.436486    0.232588    0.362288     0.007504
AU1478   AU        0.433759    0.267912    0.397005     0.007504
AU1479   AU        0.467744    0.233415    0.397978     0.007504
AU1480   AU        0.469311    0.266585    0.359658     0.007504
AU1481   AU        0.502846    0.233924    0.360768     0.007504
AU1482   AU        0.502963    0.268796    0.397342     0.007504
PD1483   PD        0.541715    0.234006    0.400443     0.005394
AU1484   AU        0.542863    0.267885    0.360448     0.007504
AU1485   AU        0.580410    0.233346    0.359831     0.007504
AU1486   AU        0.577629    0.268165    0.400334     0.007504
AU1487   AU        0.613326    0.236738    0.398538     0.007504
AU1488   AU        0.612970    0.266641    0.359934     0.007504
AU1489   AU        0.648834    0.233476    0.361394     0.007504
AU1490   AU        0.650189    0.265702    0.397594     0.007504
AU1491   AU        0.682051    0.233140    0.396757     0.007504
AU1492   AU        0.683456    0.266326    0.361674     0.007504
AU1493   AU        0.718448    0.233937    0.362697     0.007504
AU1494   AU        0.718638    0.268954    0.397099     0.007504
AU1495   AU        0.753449    0.236903    0.397915     0.007504
AU1496   AU        0.751649    0.268461    0.362307     0.007504
PD1497   PD        0.786232    0.236236    0.361703     0.005394
PD1498   PD        0.788602    0.268918    0.395807     0.005394
PD1499   PD        0.819754    0.237333    0.395755     0.005394
PD1500   PD        0.040557    0.301694    0.400758     0.005394
PD1501   PD        0.045582    0.336939    0.364173     0.005394
PD1502   PD        0.078540    0.306185    0.362053     0.005394
PD1503   PD        0.075428    0.336939    0.398650     0.005394
AU1504   AU        0.112445    0.304288    0.398294     0.007504
AU1505   AU        0.111419    0.337493    0.361843     0.007504
AU1506   AU        0.148226    0.302900    0.362041     0.007504
AU1507   AU        0.145455    0.337325    0.397696     0.007504
AU1508   AU        0.183044    0.300881    0.398532     0.007504
AU1509   AU        0.183330    0.335754    0.362209     0.007504
AU1510   AU        0.217523    0.301272    0.363125     0.007504
AU1511   AU        0.216782    0.334432    0.398344     0.007504
AU1512   AU        0.252341    0.299385    0.399339     0.007504
PD1513   PD        0.252259    0.335326    0.361280     0.005394
AU1514   AU        0.287741    0.301972    0.359604     0.007504
AU1515   AU        0.289692    0.333661    0.400403     0.007504
AU1516   AU        0.324696    0.303379    0.397207     0.007504
AU1517   AU        0.325255    0.335533    0.360639     0.007504
AU1518   AU        0.362587    0.300917    0.361959     0.007504
AU1519   AU        0.360802    0.334215    0.397634     0.007504
AU1520   AU        0.395389    0.301679    0.399400     0.007504
AU1521   AU        0.396240    0.332919    0.361870     0.007504
AU1522   AU        0.432033    0.300949    0.360600     0.007504
AU1523   AU        0.433679    0.336307    0.395815     0.007504
AU1524   AU        0.466924    0.300754    0.395664     0.007504
AU1525   AU        0.469222    0.334506    0.358731     0.007504
AU1526   AU        0.504609    0.300205    0.360658     0.007504
AU1527   AU        0.507065    0.332915    0.399616     0.007504
AU1528   AU        0.541362    0.299621    0.399634     0.007504
AU1529   AU        0.543433    0.335592    0.359645     0.007504
AU1530   AU        0.578475    0.302074    0.358300     0.007504
AU1531   AU        0.576257    0.334497    0.397690     0.007504
AU1532   AU        0.614017    0.300835    0.399169     0.007504
AU1533   AU        0.611928    0.333681    0.362487     0.007504
AU1534   AU        0.647585    0.299639    0.361789     0.007504
AU1535   AU        0.648148    0.335624    0.396930     0.007504
AU1536   AU        0.681811    0.303590    0.397918     0.007504
PD1537   PD        0.684646    0.334894    0.361941     0.005394
AU1538   AU        0.718894    0.300864    0.360256     0.007504
AU1539   AU        0.721597    0.334516    0.398442     0.007504
PD1540   PD        0.755206    0.302544    0.400971     0.005394
PD1541   PD        0.753843    0.332400    0.363155     0.005394
PD1542   PD        0.788971    0.301174    0.362547     0.005394
AU1543   AU        0.789724    0.336437    0.398868     0.007504
PD1544   PD        0.826385    0.302924    0.395489     0.005394
PD1545   PD        0.827562    0.336514    0.361040     0.005394
PD1546   PD        0.006707    0.405081    0.395137     0.005394
PD1547   PD        0.041807    0.371243    0.400310     0.005394
PD1548   PD        0.044261    0.402757    0.360898     0.005394
PD1549   PD        0.077497    0.369425    0.362650     0.005394
PD1550   PD        0.076435    0.403226    0.396200     0.005394
PD1551   PD        0.111580    0.370619    0.395609     0.005394
AU1552   AU        0.111900    0.403550    0.360642     0.007504
AU1553   AU        0.147990    0.367743    0.361253     0.007504
AU1554   AU        0.148089    0.402392    0.396607     0.007504
AU1555   AU        0.182197    0.368884    0.398795     0.007504
AU1556   AU        0.181649    0.402433    0.359702     0.007504
AU1557   AU        0.218435    0.370888    0.361287     0.007504
AU1558   AU        0.217412    0.403836    0.398650     0.007504
AU1559   AU        0.252114    0.370304    0.397720     0.007504
AU1560   AU        0.253841    0.401982    0.362357     0.007504
AU1561   AU        0.287732    0.368078    0.364002     0.007504
AU1562   AU        0.289164    0.402569    0.395878     0.007504
AU1563   AU        0.323315    0.367480    0.397972     0.007504
AU1564   AU        0.325385    0.405581    0.362161     0.007504
AU1565   AU        0.362098    0.367615    0.362616     0.007504
AU1566   AU        0.362444    0.401030    0.396943     0.007504
AU1567   AU        0.396103    0.366548    0.396740     0.007504
AU1568   AU        0.397372    0.401851    0.359144     0.007504
AU1569   AU        0.432271    0.368600    0.360345     0.007504
AU1570   AU        0.433099    0.400391    0.398371     0.007504
AU1571   AU        0.467465    0.369495    0.397118     0.007504
AU1572   AU        0.470835    0.400569    0.361773     0.007504
AU1573   AU        0.504844    0.367727    0.363169     0.007504
AU1574   AU        0.507133    0.402567    0.398620     0.007504
AU1575   AU        0.543470    0.368787    0.396735     0.007504
AU1576   AU        0.539511    0.401924    0.360977     0.007504
AU1577   AU        0.578054    0.368282    0.359475     0.007504
AU1578   AU        0.575289    0.404701    0.396970     0.007504
AU1579   AU        0.611137    0.369400    0.396748     0.007504
AU1580   AU        0.612025    0.400715    0.360876     0.007504
PD1581   PD        0.646618    0.368612    0.361984     0.005394
AU1582   AU        0.648066    0.402523    0.395735     0.007504
AU1583   AU        0.682931    0.369947    0.399325     0.007504
PD1584   PD        0.684349    0.401478    0.360433     0.005394
PD1585   PD        0.720471    0.366493    0.358677     0.005394
PD1586   PD        0.719746    0.401914    0.398959     0.005394
PD1587   PD        0.754795    0.369229    0.397841     0.005394
PD1588   PD        0.752926    0.401032    0.360894     0.005394
PD1589   PD        0.789003    0.366617    0.362854     0.005394
PD1590   PD        0.789827    0.400319    0.398870     0.005394
PD1591   PD        0.823906    0.369651    0.399325     0.005394
PD1592   PD        0.823161    0.398841    0.363489     0.005394
PD1593   PD        0.857161    0.400390    0.397527     0.005394
PD1594   PD        0.009532    0.436353    0.361098     0.005394
PD1595   PD        0.008221    0.471203    0.400191     0.005394
PD1596   PD        0.044228    0.435561    0.398507     0.005394
PD1597   PD        0.042943    0.468269    0.364758     0.005394
PD1598   PD        0.076262    0.439008    0.364107     0.005394
AU1599   AU        0.077686    0.468935    0.399111     0.007504
PD1600   PD        0.110146    0.435297    0.398910     0.005394
PD1601   PD        0.113205    0.471299    0.363359     0.005394
AU1602   AU        0.146692    0.435991    0.361044     0.007504
AU1603   AU        0.145106    0.468448    0.399354     0.007504
AU1604   AU        0.181390    0.437458    0.397431     0.007504
AU1605   AU        0.182935    0.470323    0.361831     0.007504
AU1606   AU        0.220510    0.437362    0.361314     0.007504
AU1607   AU        0.218377    0.472339    0.397086     0.007504
AU1608   AU        0.254351    0.435822    0.399455     0.007504
AU1609   AU        0.253152    0.471522    0.363558     0.007504
AU1610   AU        0.287370    0.437681    0.359976     0.007504
AU1611   AU        0.288053    0.471768    0.399069     0.007504
AU1612   AU        0.325594    0.436555    0.398461     0.007504
AU1613   AU        0.323073    0.471321    0.364597     0.007504
AU1614   AU        0.360588    0.436731    0.361244     0.007504
AU1615   AU        0.361554    0.470532    0.399861     0.007504
AU1616   AU        0.397985    0.435341    0.398328     0.007504
AU1617   AU        0.397368    0.470259    0.360755     0.007504
AU1618   AU        0.432022    0.436236    0.361961     0.007504
AU1619   AU        0.433698    0.470757    0.397855     0.007504
AU1620   AU        0.469709    0.437266    0.397055     0.007504
AU1621   AU        0.466766    0.468675    0.361591     0.007504
AU1622   AU        0.503381    0.435199    0.361318     0.007504
AU1623   AU        0.505196    0.470297    0.398011     0.007504
AU1624   AU        0.541067    0.436227    0.399841     0.007504
AU1625   AU        0.541401    0.470302    0.360831     0.007504
AU1626   AU        0.574521    0.435954    0.360647     0.007504
AU1627   AU        0.577785    0.468190    0.397811     0.007504
AU1628   AU        0.611667    0.437634    0.397338     0.007504
AU1629   AU        0.613489    0.470886    0.360188     0.007504
AU1630   AU        0.648419    0.436475    0.362101     0.007504
AU1631   AU        0.648002    0.469720    0.398136     0.007504
AU1632   AU        0.685160    0.436506    0.398847     0.007504
AU1633   AU        0.686600    0.469316    0.363003     0.007504
PD1634   PD        0.719352    0.435703    0.362058     0.005394
AU1635   AU        0.720352    0.469057    0.396761     0.007504
PD1636   PD        0.754285    0.435400    0.395456     0.005394
PD1637   PD        0.755262    0.467921    0.359102     0.005394
PD1638   PD        0.790654    0.435570    0.360027     0.005394
PD1639   PD        0.793099    0.467901    0.401409     0.005394
AU1640   AU        0.823221    0.434199    0.398184     0.007504
PD1641   PD        0.823307    0.466844    0.361113     0.005394
PD1642   PD        0.858121    0.433082    0.362135     0.005394
PD1643   PD        0.860526    0.468397    0.397293     0.005394
PD1644   PD        0.044931    0.502033    0.396834     0.005394
PD1645   PD        0.039306    0.538117    0.359624     0.005394
PD1646   PD        0.073982    0.506016    0.358110     0.005394
PD1647   PD        0.073243    0.540170    0.399610     0.005394
PD1648   PD        0.107903    0.506807    0.398620     0.005394
PD1649   PD        0.109289    0.538345    0.363587     0.005394
PD1650   PD        0.147800    0.505212    0.363500     0.005394
PD1651   PD        0.145117    0.538621    0.400278     0.005394
AU1652   AU        0.182504    0.503991    0.399369     0.007504
AU1653   AU        0.182561    0.538080    0.361629     0.007504
PD1654   PD        0.218718    0.501750    0.362081     0.005394
AU1655   AU        0.215190    0.537744    0.396337     0.007504
AU1656   AU        0.254071    0.506054    0.397447     0.007504
AU1657   AU        0.251583    0.538143    0.363336     0.007504
AU1658   AU        0.287570    0.505257    0.362447     0.007504
AU1659   AU        0.288562    0.538600    0.397449     0.007504
AU1660   AU        0.324728    0.505459    0.398270     0.007504
AU1661   AU        0.325254    0.537190    0.360722     0.007504
AU1662   AU        0.360330    0.500637    0.361278     0.007504
AU1663   AU        0.359565    0.537793    0.397415     0.007504
AU1664   AU        0.398472    0.504614    0.397756     0.007504
AU1665   AU        0.397482    0.536715    0.361880     0.007504
AU1666   AU        0.432224    0.503697    0.360101     0.007504
AU1667   AU        0.430915    0.538743    0.397750     0.007504
AU1668   AU        0.465655    0.503631    0.398760     0.007504
AU1669   AU        0.467858    0.537956    0.361567     0.007504
AU1670   AU        0.506007    0.502639    0.358884     0.007504
AU1671   AU        0.504305    0.535787    0.395182     0.007504
AU1672   AU        0.540757    0.502836    0.398222     0.007504
AU1673   AU        0.541104    0.535351    0.361280     0.007504
AU1674   AU        0.576164    0.502333    0.359348     0.007504
AU1675   AU        0.575082    0.535404    0.395769     0.007504
AU1676   AU        0.611612    0.501820    0.398003     0.007504
PD1677   PD        0.610073    0.535106    0.360349     0.005394
AU1678   AU        0.649661    0.501862    0.362808     0.007504
PD1679   PD        0.650713    0.535214    0.396777     0.005394
AU1680   AU        0.688147    0.501785    0.398254     0.007504
PD1681   PD        0.684532    0.536023    0.358784     0.005394
AU1682   AU        0.722074    0.501436    0.359871     0.007504
AU1683   AU        0.722236    0.534902    0.396585     0.007504
AU1684   AU        0.756304    0.501147    0.397826     0.007504
AU1685   AU        0.753894    0.534275    0.358736     0.007504
PD1686   PD        0.789328    0.501369    0.361020     0.005394
PD1687   PD        0.792005    0.535045    0.396260     0.005394
PD1688   PD        0.824835    0.501841    0.397000     0.005394
PD1689   PD        0.825312    0.532390    0.359899     0.005394
PD1690   PD        0.036446    0.568877    0.399422     0.005394
PD1691   PD        0.043650    0.603150    0.366816     0.005394
PD1692   PD        0.077179    0.571098    0.364146     0.005394
PD1693   PD        0.080055    0.606967    0.397224     0.005394
PD1694   PD        0.111560    0.571137    0.399642     0.005394
PD1695   PD        0.112895    0.605306    0.361745     0.005394
PD1696   PD        0.146331    0.571790    0.362084     0.005394
AU1697   AU        0.145840    0.605944    0.397689     0.007504
AU1698   AU        0.179959    0.569822    0.398577     0.007504
PD1699   PD        0.182346    0.605754    0.360317     0.005394
AU1700   AU        0.217671    0.571835    0.362167     0.007504
AU1701   AU        0.216065    0.604780    0.401278     0.007504
AU1702   AU        0.250779    0.571411    0.397590     0.007504
AU1703   AU        0.251652    0.606017    0.365431     0.007504
AU1704   AU        0.286969    0.571591    0.362117     0.007504
AU1705   AU        0.288494    0.606344    0.399690     0.007504
AU1706   AU        0.324253    0.570658    0.396022     0.007504
AU1707   AU        0.324082    0.604605    0.360264     0.007504
AU1708   AU        0.359466    0.571970    0.360766     0.007504
AU1709   AU        0.361700    0.604685    0.398862     0.007504
AU1710   AU        0.398203    0.570882    0.399391     0.007504
AU1711   AU        0.396760    0.605526    0.361652     0.007504
AU1712   AU        0.430593    0.570839    0.363304     0.007504
AU1713   AU        0.433786    0.605303    0.397859     0.007504
AU1714   AU        0.466486    0.570796    0.397176     0.007504
AU1715   AU        0.471511    0.605268    0.360946     0.007504
AU1716   AU        0.505406    0.570554    0.360305     0.007504
AU1717   AU        0.505287    0.604682    0.396028     0.007504
AU1718   AU        0.541540    0.571165    0.397160     0.007504
AU1719   AU        0.539623    0.605523    0.359715     0.007504
AU1720   AU        0.574523    0.572714    0.361149     0.007504
PD1721   PD        0.575920    0.605673    0.397802     0.005394
PD1722   PD        0.612299    0.571134    0.394746     0.005394
AU1723   AU        0.611325    0.605150    0.363409     0.007504
AU1724   AU        0.648147    0.569420    0.362151     0.007504
PD1725   PD        0.645079    0.605929    0.400158     0.005394
PD1726   PD        0.687312    0.566698    0.397213     0.005394
PD1727   PD        0.683717    0.600368    0.360104     0.005394
PD1728   PD        0.721656    0.568587    0.359552     0.005394
PD1729   PD        0.722132    0.602938    0.395301     0.005394
AU1730   AU        0.758429    0.566360    0.394428     0.007504
PD1731   PD        0.760032    0.602720    0.359365     0.005394
PD1732   PD        0.790482    0.567653    0.356107     0.005394
PD1733   PD        0.792976    0.598786    0.396029     0.005394
PD1734   PD        0.827125    0.564254    0.395113     0.005394
PD1735   PD        0.861663    0.572040    0.360189     0.005394
PD1736   PD        0.078406    0.638641    0.363175     0.005394
PD1737   PD        0.077661    0.741174    0.393841     0.005394
AU1738   AU        0.112787    0.638413    0.399989     0.007504
PD1739   PD        0.112879    0.670011    0.366711     0.005394
PD1740   PD        0.149073    0.636301    0.361627     0.005394
AU1741   AU        0.146478    0.669446    0.399684     0.007504
AU1742   AU        0.182405    0.639030    0.398262     0.007504
AU1743   AU        0.182773    0.672443    0.362368     0.007504
AU1744   AU        0.215762    0.638768    0.361291     0.007504
AU1745   AU        0.218135    0.670656    0.397835     0.007504
AU1746   AU        0.251227    0.637554    0.400143     0.007504
PD1747   PD        0.249602    0.671396    0.362946     0.005394
PD1748   PD        0.285761    0.637733    0.361781     0.005394
AU1749   AU        0.288977    0.672784    0.399341     0.007504
AU1750   AU        0.323538    0.637659    0.398188     0.007504
AU1751   AU        0.325374    0.669954    0.361553     0.007504
AU1752   AU        0.361226    0.639019    0.362670     0.007504
AU1753   AU        0.359158    0.670294    0.397523     0.007504
AU1754   AU        0.397480    0.638365    0.395472     0.007504
AU1755   AU        0.397647    0.672869    0.362726     0.007504
AU1756   AU        0.433759    0.638843    0.359609     0.007504
AU1757   AU        0.432093    0.672068    0.396562     0.007504
AU1758   AU        0.468185    0.638300    0.398416     0.007504
PD1759   PD        0.469436    0.670677    0.360713     0.005394
AU1760   AU        0.505925    0.637139    0.360160     0.007504
AU1761   AU        0.504264    0.670268    0.396553     0.007504
AU1762   AU        0.541651    0.639041    0.397402     0.007504
AU1763   AU        0.539292    0.669124    0.360764     0.007504
AU1764   AU        0.573800    0.637949    0.361091     0.007504
AU1765   AU        0.575593    0.671006    0.397451     0.007504
AU1766   AU        0.611247    0.637905    0.396220     0.007504
AU1767   AU        0.611431    0.670890    0.360163     0.007504
PD1768   PD        0.648679    0.636537    0.358468     0.005394
AU1769   AU        0.644453    0.673957    0.398711     0.007504
PD1770   PD        0.684542    0.638603    0.395626     0.005394
PD1771   PD        0.682353    0.670068    0.358648     0.005394
PD1772   PD        0.717768    0.635871    0.358391     0.005394
PD1773   PD        0.719654    0.672291    0.394941     0.005394
PD1774   PD        0.760583    0.632874    0.392527     0.005394
PD1775   PD        0.754308    0.667079    0.361619     0.005394
PD1776   PD        0.797109    0.628441    0.359499     0.005394
PD1777   PD        0.829139    0.631392    0.398965     0.005394
PD1778   PD        0.107705    0.702459    0.399034     0.005394
PD1779   PD        0.147168    0.700867    0.363997     0.005394
PD1780   PD        0.144666    0.734021    0.399186     0.005394
AU1781   AU        0.181657    0.703183    0.401150     0.007504
PD1782   PD        0.181550    0.734953    0.365115     0.005394
AU1783   AU        0.216585    0.703586    0.365211     0.007504
AU1784   AU        0.216993    0.736252    0.399323     0.007504
PD1785   PD        0.252853    0.703018    0.398464     0.005394
PD1786   PD        0.250725    0.735353    0.364279     0.005394
PD1787   PD        0.287069    0.703258    0.361006     0.005394
PD1788   PD        0.288538    0.733761    0.398988     0.005394
AU1789   AU        0.325300    0.703260    0.395000     0.007504
AU1790   AU        0.326138    0.737308    0.361401     0.007504
AU1791   AU        0.361247    0.703958    0.362859     0.007504
PD1792   PD        0.361723    0.736897    0.396085     0.005394
AU1793   AU        0.396967    0.704231    0.398173     0.007504
AU1794   AU        0.396807    0.736574    0.361159     0.007504
AU1795   AU        0.432693    0.704328    0.362608     0.007504
AU1796   AU        0.432995    0.736746    0.396466     0.007504
AU1797   AU        0.469722    0.704999    0.395101     0.007504
AU1798   AU        0.469820    0.736426    0.360226     0.007504
AU1799   AU        0.506815    0.705925    0.361134     0.007504
AU1800   AU        0.504727    0.736492    0.397675     0.007504
AU1801   AU        0.539216    0.704374    0.396605     0.007504
AU1802   AU        0.540276    0.738444    0.360491     0.007504
PD1803   PD        0.573899    0.702089    0.361303     0.005394
PD1804   PD        0.577484    0.736505    0.397669     0.005394
PD1805   PD        0.611329    0.703058    0.396870     0.005394
PD1806   PD        0.609187    0.734968    0.360512     0.005394
AU1807   AU        0.646078    0.702856    0.361058     0.007504
PD1808   PD        0.644158    0.736857    0.394998     0.005394
PD1809   PD        0.681441    0.702228    0.394887     0.005394
PD1810   PD        0.686515    0.735360    0.358767     0.005394
PD1811   PD        0.722533    0.701511    0.361198     0.005394
PD1812   PD        0.784105    0.744334    0.396198     0.005394
PD1813   PD        0.760704    0.698311    0.391158     0.005394
PD1814   PD        0.180942    0.768386    0.398405     0.005394
PD1815   PD        0.214173    0.766586    0.361742     0.005394
PD1816   PD        0.254792    0.766450    0.397599     0.005394
PD1817   PD        0.253764    0.799699    0.363751     0.005394
PD1818   PD        0.289597    0.771955    0.360430     0.005394
PD1819   PD        0.289493    0.836664    0.367007     0.005394
AU1820   AU        0.327659    0.770119    0.396769     0.007504
AU1821   AU        0.326146    0.802720    0.361822     0.007504
PD1822   PD        0.361119    0.768532    0.363418     0.005394
AU1823   AU        0.364528    0.801774    0.396441     0.007504
AU1824   AU        0.396942    0.768362    0.396567     0.007504
AU1825   AU        0.397203    0.802212    0.361761     0.007504
AU1826   AU        0.434246    0.769390    0.360723     0.007504
AU1827   AU        0.430852    0.800780    0.394968     0.007504
PD1828   PD        0.469960    0.769888    0.395159     0.005394
PD1829   PD        0.467868    0.804133    0.360613     0.005394
AU1830   AU        0.504104    0.769792    0.360963     0.007504
PD1831   PD        0.502805    0.801874    0.397879     0.005394
PD1832   PD        0.541946    0.769517    0.397914     0.005394
PD1833   PD        0.539941    0.803454    0.362521     0.005394
PD1834   PD        0.574599    0.769066    0.364188     0.005394
PD1835   PD        0.571325    0.835257    0.432315     0.005394
PD1836   PD        0.607844    0.769854    0.396952     0.005394
PD1837   PD        0.507284    0.835343    0.353935     0.005394
PD1838   PD        0.651442    0.769300    0.363887     0.005394
PD1839   PD        0.680146    0.803032    0.430355     0.005394
PD1840   PD        0.397050    0.835632    0.397848     0.005394
PD1841   PD        0.391733    0.864447    0.361577     0.005394
PD1842   PD        0.464197    0.834301    0.395383     0.005394
PD1843   PD        0.255994    0.070755    0.433356     0.005394
PD1844   PD        0.288428    0.069645    0.468474     0.005394
PD1845   PD        0.325175    0.072528    0.435187     0.005394
PD1846   PD        0.326847    0.038763    0.471258     0.005394
PD1847   PD        0.362670    0.073683    0.470583     0.005394
PD1848   PD        0.391923    0.000667    0.435897     0.005394
PD1849   PD        0.397320    0.071134    0.434410     0.005394
PD1850   PD        0.436674    0.036062    0.439628     0.005394
AU1851   AU        0.432462    0.069967    0.471926     0.007504
PD1852   PD        0.472227    0.040160    0.471144     0.005394
AU1853   AU        0.469108    0.071186    0.436118     0.007504
PD1854   PD        0.505233    0.036292    0.437550     0.005394
AU1855   AU        0.503883    0.072505    0.468950     0.007504
PD1856   PD        0.540000    0.071285    0.434982     0.005394
PD1857   PD        0.577967    0.069563    0.466883     0.005394
PD1858   PD        0.613541    0.072525    0.431361     0.005394
PD1859   PD        0.143541    0.137714    0.471328     0.005394
PD1860   PD        0.178510    0.106443    0.466628     0.005394
PD1861   PD        0.182467    0.138588    0.431760     0.005394
PD1862   PD        0.217104    0.102911    0.433545     0.005394
AU1863   AU        0.219704    0.135998    0.470882     0.007504
AU1864   AU        0.252072    0.104279    0.471032     0.007504
AU1865   AU        0.252836    0.135471    0.436038     0.007504
PD1866   PD        0.288443    0.102922    0.433918     0.005394
AU1867   AU        0.288698    0.134718    0.472050     0.007504
PD1868   PD        0.323447    0.102782    0.471970     0.005394
PD1869   PD        0.326529    0.133405    0.437480     0.005394
PD1870   PD        0.362535    0.103000    0.436420     0.005394
AU1871   AU        0.359829    0.134781    0.471503     0.007504
PD1872   PD        0.398567    0.102237    0.471751     0.005394
PD1873   PD        0.395406    0.135904    0.437165     0.005394
AU1874   AU        0.433668    0.101601    0.434729     0.007504
AU1875   AU        0.435037    0.135218    0.473160     0.007504
PD1876   PD        0.467283    0.104769    0.469043     0.005394
AU1877   AU        0.468241    0.136411    0.433191     0.007504
AU1878   AU        0.504597    0.103996    0.434998     0.007504
AU1879   AU        0.502870    0.135245    0.471459     0.007504
PD1880   PD        0.538602    0.105457    0.469287     0.005394
AU1881   AU        0.541580    0.135714    0.433625     0.007504
PD1882   PD        0.577508    0.104887    0.434369     0.005394
AU1883   AU        0.577554    0.136433    0.472577     0.007504
PD1884   PD        0.612367    0.100276    0.471346     0.005394
AU1885   AU        0.611734    0.135136    0.435350     0.007504
PD1886   PD        0.648671    0.103677    0.433857     0.005394
PD1887   PD        0.648535    0.135537    0.468013     0.005394
PD1888   PD        0.686548    0.105646    0.471121     0.005394
PD1889   PD        0.682637    0.135878    0.434142     0.005394
PD1890   PD        0.717423    0.097887    0.503009     0.005394
PD1891   PD        0.076508    0.206632    0.471989     0.005394
PD1892   PD        0.110335    0.171753    0.470382     0.005394
PD1893   PD        0.113339    0.204691    0.434197     0.005394
PD1894   PD        0.145272    0.171045    0.432303     0.005394
PD1895   PD        0.147707    0.203194    0.467932     0.005394
PD1896   PD        0.179684    0.170458    0.470394     0.005394
AU1897   AU        0.184631    0.203801    0.434525     0.007504
PD1898   PD        0.220221    0.170369    0.435757     0.005394
AU1899   AU        0.218121    0.201147    0.470925     0.007504
AU1900   AU        0.255213    0.169298    0.468276     0.007504
AU1901   AU        0.254371    0.201295    0.436036     0.007504
AU1902   AU        0.287193    0.169442    0.434747     0.007504
AU1903   AU        0.289410    0.203815    0.470603     0.007504
AU1904   AU        0.323656    0.168707    0.470385     0.007504
AU1905   AU        0.323223    0.201291    0.435242     0.007504
PD1906   PD        0.360813    0.167822    0.434533     0.005394
AU1907   AU        0.358206    0.201198    0.469585     0.007504
AU1908   AU        0.395704    0.167369    0.470889     0.007504
AU1909   AU        0.396485    0.203151    0.435092     0.007504
AU1910   AU        0.431568    0.167902    0.436301     0.007504
AU1911   AU        0.434481    0.199382    0.471934     0.007504
AU1912   AU        0.466857    0.167128    0.470899     0.007504
AU1913   AU        0.465854    0.201359    0.434751     0.007504
AU1914   AU        0.503688    0.166897    0.434577     0.007504
AU1915   AU        0.504969    0.199988    0.469281     0.007504
AU1916   AU        0.541732    0.166677    0.471368     0.007504
AU1917   AU        0.541398    0.198819    0.436460     0.007504
PD1918   PD        0.578499    0.167872    0.436406     0.005394
AU1919   AU        0.577139    0.199531    0.470795     0.007504
AU1920   AU        0.614107    0.168538    0.470917     0.007504
AU1921   AU        0.613126    0.199976    0.433557     0.007504
AU1922   AU        0.647222    0.169494    0.430676     0.007504
PD1923   PD        0.648523    0.201181    0.471609     0.005394
PD1924   PD        0.681677    0.167707    0.470068     0.005394
PD1925   PD        0.682719    0.199610    0.431672     0.005394
PD1926   PD        0.721006    0.166797    0.431836     0.005394
AU1927   AU        0.720344    0.201188    0.470645     0.007504
PD1928   PD        0.755565    0.170268    0.468357     0.005394
PD1929   PD        0.755158    0.202329    0.432451     0.005394
PD1930   PD        0.789138    0.199368    0.469392     0.005394
PD1931   PD        0.039672    0.270695    0.437189     0.005394
PD1932   PD        0.075989    0.239382    0.435052     0.005394
PD1933   PD        0.076864    0.272933    0.470413     0.005394
PD1934   PD        0.113250    0.238235    0.469030     0.005394
PD1935   PD        0.110658    0.268295    0.434634     0.005394
PD1936   PD        0.148196    0.237020    0.434203     0.005394
PD1937   PD        0.144876    0.269477    0.470997     0.005394
AU1938   AU        0.182817    0.235640    0.468872     0.007504
AU1939   AU        0.182534    0.268187    0.433806     0.007504
AU1940   AU        0.220231    0.234077    0.434060     0.007504
AU1941   AU        0.217805    0.266627    0.470283     0.007504
AU1942   AU        0.253487    0.235298    0.470133     0.007504
AU1943   AU        0.254226    0.266723    0.433167     0.007504
AU1944   AU        0.286844    0.234392    0.432164     0.007504
AU1945   AU        0.290649    0.266665    0.469331     0.007504
AU1946   AU        0.323889    0.234132    0.470911     0.007504
AU1947   AU        0.325365    0.269470    0.434747     0.007504
AU1948   AU        0.357987    0.234042    0.434127     0.007504
AU1949   AU        0.361279    0.267005    0.470239     0.007504
AU1950   AU        0.397909    0.232590    0.471647     0.007504
AU1951   AU        0.397890    0.266298    0.434159     0.007504
AU1952   AU        0.433767    0.234902    0.433225     0.007504
AU1953   AU        0.430519    0.266803    0.471189     0.007504
AU1954   AU        0.468921    0.234087    0.469381     0.007504
AU1955   AU        0.468526    0.266561    0.434782     0.007504
AU1956   AU        0.504893    0.235915    0.434412     0.007504
AU1957   AU        0.506378    0.265577    0.471146     0.007504
AU1958   AU        0.541616    0.234329    0.469831     0.007504
AU1959   AU        0.539189    0.269783    0.434378     0.007504
AU1960   AU        0.577397    0.233024    0.436696     0.007504
AU1961   AU        0.578789    0.265949    0.469647     0.007504
AU1962   AU        0.612384    0.232227    0.470443     0.007504
AU1963   AU        0.614949    0.265733    0.434413     0.007504
AU1964   AU        0.648451    0.234594    0.434128     0.007504
PD1965   PD        0.648674    0.266228    0.470125     0.005394
PD1966   PD        0.686245    0.234673    0.470409     0.005394
PD1967   PD        0.685997    0.268665    0.431678     0.005394
AU1968   AU        0.719687    0.233173    0.430608     0.007504
PD1969   PD        0.718020    0.270681    0.469602     0.005394
AU1970   AU        0.751970    0.234496    0.469417     0.007504
AU1971   AU        0.753404    0.267943    0.434895     0.007504
PD1972   PD        0.788170    0.236461    0.437096     0.005394
PD1973   PD        0.787590    0.269376    0.470536     0.005394
PD1974   PD        0.822117    0.269274    0.432872     0.005394
PD1975   PD        0.041447    0.305173    0.473269     0.005394
PD1976   PD        0.043426    0.336621    0.434918     0.005394
PD1977   PD        0.075178    0.302762    0.434035     0.005394
PD1978   PD        0.078213    0.338091    0.467491     0.005394
PD1979   PD        0.112882    0.302085    0.470170     0.005394
PD1980   PD        0.110712    0.337704    0.432658     0.005394
AU1981   AU        0.146399    0.303698    0.433018     0.007504
AU1982   AU        0.143640    0.336854    0.469123     0.007504
AU1983   AU        0.180361    0.304084    0.470761     0.007504
AU1984   AU        0.181723    0.334544    0.431137     0.007504
PD1985   PD        0.216087    0.299676    0.434821     0.005394
AU1986   AU        0.217911    0.336615    0.468615     0.007504
AU1987   AU        0.253045    0.301833    0.468654     0.007504
AU1988   AU        0.251374    0.336264    0.433181     0.007504
AU1989   AU        0.289163    0.299342    0.433687     0.007504
AU1990   AU        0.287147    0.334878    0.470117     0.007504
AU1991   AU        0.322674    0.301696    0.468931     0.007504
AU1992   AU        0.323912    0.333731    0.435192     0.007504
AU1993   AU        0.362301    0.300249    0.433569     0.007504
AU1994   AU        0.360919    0.334002    0.469767     0.007504
AU1995   AU        0.399041    0.302157    0.469997     0.007504
AU1996   AU        0.395818    0.333491    0.435234     0.007504
AU1997   AU        0.432872    0.300295    0.432845     0.007504
AU1998   AU        0.434405    0.334209    0.470494     0.007504
AU1999   AU        0.468354    0.300686    0.471196     0.007504
AU2000   AU        0.468073    0.336515    0.431242     0.007504
AU2001   AU        0.504767    0.302489    0.435483     0.007504
AU2002   AU        0.506770    0.334454    0.469802     0.007504
AU2003   AU        0.540792    0.302161    0.469583     0.007504
AU2004   AU        0.541445    0.335139    0.432581     0.007504
AU2005   AU        0.578079    0.299442    0.435109     0.007504
AU2006   AU        0.578169    0.335241    0.471101     0.007504
AU2007   AU        0.612280    0.299655    0.469476     0.007504
AU2008   AU        0.611908    0.334352    0.435364     0.007504
AU2009   AU        0.647230    0.301139    0.434774     0.007504
AU2010   AU        0.648155    0.335799    0.468278     0.007504
PD2011   PD        0.682702    0.301840    0.470951     0.005394
AU2012   AU        0.684319    0.335811    0.433305     0.007504
AU2013   AU        0.720395    0.303109    0.433881     0.007504
PD2014   PD        0.719943    0.336056    0.469963     0.005394
PD2015   PD        0.754123    0.301225    0.469198     0.005394
AU2016   AU        0.754754    0.334350    0.434053     0.007504
PD2017   PD        0.790578    0.302062    0.431272     0.005394
PD2018   PD        0.789609    0.335216    0.468797     0.005394
PD2019   PD        0.895825    0.299306    0.471888     0.005394
PD2020   PD        0.825226    0.334255    0.433390     0.005394
PD2021   PD        0.007794    0.337988    0.469211     0.005394
PD2022   PD        0.007115    0.402213    0.467045     0.005394
PD2023   PD        0.042553    0.368725    0.466575     0.005394
PD2024   PD        0.040589    0.405274    0.434639     0.005394
AU2025   AU        0.076103    0.372169    0.433003     0.007504
PD2026   PD        0.074170    0.403501    0.469038     0.005394
PD2027   PD        0.110759    0.371565    0.469989     0.005394
AU2028   AU        0.114183    0.402418    0.429825     0.007504
AU2029   AU        0.147810    0.369109    0.433163     0.007504
AU2030   AU        0.144944    0.402031    0.469533     0.007504
AU2031   AU        0.179943    0.370312    0.470768     0.007504
AU2032   AU        0.181978    0.403992    0.432802     0.007504
AU2033   AU        0.218059    0.368107    0.433144     0.007504
AU2034   AU        0.219073    0.403207    0.468623     0.007504
AU2035   AU        0.253216    0.369193    0.469863     0.007504
AU2036   AU        0.254678    0.401729    0.434269     0.007504
AU2037   AU        0.291012    0.367634    0.433893     0.007504
AU2038   AU        0.287253    0.403916    0.470512     0.007504
AU2039   AU        0.322548    0.370176    0.470449     0.007504
AU2040   AU        0.324164    0.401487    0.431407     0.007504
AU2041   AU        0.362008    0.368805    0.434123     0.007504
AU2042   AU        0.360096    0.401698    0.469239     0.007504
AU2043   AU        0.397507    0.366869    0.469350     0.007504
AU2044   AU        0.396605    0.401183    0.434405     0.007504
AU2045   AU        0.432097    0.368409    0.433202     0.007504
AU2046   AU        0.432361    0.400801    0.469421     0.007504
AU2047   AU        0.469042    0.368639    0.470050     0.007504
AU2048   AU        0.468262    0.402376    0.434493     0.007504
AU2049   AU        0.506449    0.365672    0.434206     0.007504
AU2050   AU        0.507783    0.401790    0.469463     0.007504
AU2051   AU        0.541847    0.367986    0.471560     0.007504
AU2052   AU        0.541852    0.401546    0.433762     0.007504
AU2053   AU        0.576545    0.368731    0.432191     0.007504
AU2054   AU        0.578800    0.400349    0.472213     0.007504
AU2055   AU        0.613014    0.367463    0.469641     0.007504
AU2056   AU        0.610864    0.401771    0.431797     0.007504
AU2057   AU        0.646048    0.369721    0.433272     0.007504
AU2058   AU        0.648309    0.400455    0.469374     0.007504
AU2059   AU        0.684750    0.369575    0.469544     0.007504
AU2060   AU        0.686168    0.402258    0.432699     0.007504
AU2061   AU        0.719512    0.370167    0.433468     0.007504
AU2062   AU        0.719999    0.403429    0.469907     0.007504
AU2063   AU        0.754124    0.369316    0.469076     0.007504
AU2064   AU        0.752309    0.401294    0.435034     0.007504
PD2065   PD        0.789763    0.366857    0.435542     0.005394
AU2066   AU        0.788420    0.401942    0.468413     0.007504
AU2067   AU        0.826198    0.370005    0.468283     0.007504
PD2068   PD        0.824365    0.402156    0.432140     0.005394
PD2069   PD        0.862178    0.370052    0.431465     0.005394
PD2070   PD        0.862222    0.401401    0.466389     0.005394
AU2071   AU        0.006756    0.437281    0.433511     0.007504
PD2072   PD        0.004158    0.472256    0.467035     0.005394
PD2073   PD        0.040721    0.438586    0.468962     0.005394
AU2074   AU        0.041204    0.469810    0.435133     0.007504
AU2075   AU        0.075893    0.437920    0.434227     0.007504
PD2076   PD        0.078220    0.471789    0.468746     0.005394
PD2077   PD        0.111076    0.434219    0.468148     0.005394
AU2078   AU        0.111873    0.470116    0.432610     0.007504
PD2079   PD        0.147839    0.437541    0.436271     0.005394
AU2080   AU        0.146393    0.470725    0.470622     0.007504
AU2081   AU        0.181619    0.436920    0.471486     0.007504
AU2082   AU        0.182771    0.470822    0.433630     0.007504
AU2083   AU        0.213628    0.437710    0.432762     0.007504
AU2084   AU        0.215226    0.470623    0.469992     0.007504
AU2085   AU        0.251397    0.436536    0.468944     0.007504
AU2086   AU        0.250141    0.470986    0.434748     0.007504
AU2087   AU        0.290155    0.436498    0.434457     0.007504
AU2088   AU        0.289981    0.470576    0.467615     0.007504
AU2089   AU        0.325945    0.435377    0.467800     0.007504
AU2090   AU        0.326123    0.469503    0.433718     0.007504
AU2091   AU        0.362266    0.434730    0.434620     0.007504
AU2092   AU        0.361687    0.471017    0.468312     0.007504
AU2093   AU        0.399039    0.434213    0.470064     0.007504
AU2094   AU        0.396951    0.466910    0.434639     0.007504
AU2095   AU        0.433504    0.436765    0.434240     0.007504
AU2096   AU        0.432445    0.470841    0.469623     0.007504
AU2097   AU        0.467083    0.436523    0.470780     0.007504
AU2098   AU        0.468766    0.468769    0.433372     0.007504
AU2099   AU        0.507932    0.436080    0.434900     0.007504
AU2100   AU        0.503867    0.467211    0.468932     0.007504
AU2101   AU        0.541926    0.436918    0.470494     0.007504
AU2102   AU        0.543590    0.470146    0.433380     0.007504
AU2103   AU        0.575365    0.434016    0.435145     0.007504
AU2104   AU        0.579753    0.469357    0.468633     0.007504
AU2105   AU        0.612431    0.435539    0.468756     0.007504
AU2106   AU        0.612513    0.470449    0.433018     0.007504
AU2107   AU        0.647776    0.434825    0.434378     0.007504
AU2108   AU        0.646552    0.467511    0.470326     0.007504
AU2109   AU        0.684130    0.434449    0.468892     0.007504
AU2110   AU        0.685261    0.469494    0.432172     0.007504
AU2111   AU        0.722128    0.435063    0.433909     0.007504
AU2112   AU        0.720904    0.468512    0.467521     0.007504
AU2113   AU        0.756986    0.436127    0.469878     0.007504
AU2114   AU        0.756418    0.469015    0.431811     0.007504
AU2115   AU        0.789229    0.433625    0.433670     0.007504
PD2116   PD        0.789843    0.468269    0.469848     0.005394
AU2117   AU        0.825872    0.434019    0.470998     0.007504
PD2118   PD        0.823418    0.468159    0.432101     0.005394
PD2119   PD        0.858713    0.435863    0.433490     0.005394
PD2120   PD        0.859454    0.466218    0.470640     0.005394
PD2121   PD        0.006401    0.502753    0.432624     0.005394
AU2122   AU        0.042890    0.504403    0.468384     0.007504
PD2123   PD        0.043488    0.537109    0.435212     0.005394
PD2124   PD        0.078452    0.503487    0.432834     0.005394
PD2125   PD        0.076363    0.538171    0.471970     0.005394
AU2126   AU        0.110740    0.503875    0.469766     0.007504
AU2127   AU        0.111390    0.539240    0.435859     0.007504
AU2128   AU        0.144474    0.505746    0.436228     0.007504
AU2129   AU        0.146320    0.537769    0.472646     0.007504
AU2130   AU        0.180612    0.503756    0.470031     0.007504
AU2131   AU        0.180226    0.538683    0.436471     0.007504
AU2132   AU        0.218503    0.503877    0.435579     0.007504
AU2133   AU        0.218217    0.538167    0.471133     0.007504
AU2134   AU        0.251587    0.505445    0.469133     0.007504
AU2135   AU        0.252241    0.537680    0.434674     0.007504
AU2136   AU        0.289266    0.503647    0.431829     0.007504
AU2137   AU        0.289153    0.536223    0.471151     0.007504
AU2138   AU        0.324095    0.502499    0.470506     0.007504
AU2139   AU        0.323568    0.539233    0.436339     0.007504
AU2140   AU        0.359147    0.504136    0.433688     0.007504
AU2141   AU        0.358567    0.537082    0.469468     0.007504
AU2142   AU        0.397444    0.504127    0.470517     0.007504
AU2143   AU        0.394509    0.537208    0.431977     0.007504
AU2144   AU        0.432345    0.504214    0.433366     0.007504
AU2145   AU        0.431034    0.538481    0.468438     0.007504
AU2146   AU        0.468267    0.504201    0.471919     0.007504
AU2147   AU        0.468100    0.537737    0.431897     0.007504
AU2148   AU        0.504093    0.505989    0.433348     0.007504
AU2149   AU        0.505568    0.534953    0.470339     0.007504
AU2150   AU        0.541068    0.502120    0.470375     0.007504
AU2151   AU        0.539228    0.537855    0.433652     0.007504
AU2152   AU        0.577610    0.503610    0.434941     0.007504
AU2153   AU        0.574484    0.537213    0.469580     0.007504
AU2154   AU        0.615309    0.502267    0.468924     0.007504
AU2155   AU        0.614857    0.535101    0.433073     0.007504
AU2156   AU        0.649721    0.503654    0.432091     0.007504
PD2157   PD        0.647429    0.536033    0.468906     0.005394
AU2158   AU        0.687693    0.503006    0.469847     0.007504
AU2159   AU        0.686256    0.533950    0.432196     0.007504
AU2160   AU        0.721981    0.500739    0.433406     0.007504
AU2161   AU        0.722401    0.535596    0.467099     0.007504
AU2162   AU        0.756244    0.501379    0.468830     0.007504
PD2163   PD        0.756709    0.534590    0.435955     0.005394
AU2164   AU        0.790579    0.502219    0.433814     0.007504
AU2165   AU        0.791408    0.534229    0.468588     0.007504
AU2166   AU        0.826174    0.500482    0.470248     0.007504
PD2167   PD        0.825089    0.532969    0.433872     0.005394
PD2168   PD        0.858917    0.498696    0.432907     0.005394
PD2169   PD        0.043580    0.570875    0.471763     0.005394
PD2170   PD        0.045322    0.637526    0.396516     0.005394
AU2171   AU        0.075667    0.572298    0.433715     0.007504
AU2172   AU        0.077660    0.603346    0.468682     0.007504
AU2173   AU        0.110836    0.572295    0.469922     0.007504
AU2174   AU        0.111934    0.603356    0.433641     0.007504
AU2175   AU        0.145326    0.571668    0.435678     0.007504
AU2176   AU        0.145910    0.605786    0.469076     0.007504
AU2177   AU        0.178938    0.570448    0.470617     0.007504
AU2178   AU        0.181908    0.603048    0.433988     0.007504
AU2179   AU        0.216040    0.570549    0.433881     0.007504
AU2180   AU        0.215877    0.606079    0.471197     0.007504
AU2181   AU        0.254837    0.573410    0.468824     0.007504
AU2182   AU        0.253576    0.605501    0.434164     0.007504
AU2183   AU        0.287971    0.571057    0.431833     0.007504
AU2184   AU        0.289227    0.605505    0.470436     0.007504
AU2185   AU        0.322996    0.571951    0.468865     0.007504
AU2186   AU        0.322810    0.603981    0.434733     0.007504
AU2187   AU        0.359904    0.570083    0.433466     0.007504
AU2188   AU        0.360375    0.602780    0.468310     0.007504
AU2189   AU        0.396884    0.570696    0.467332     0.007504
AU2190   AU        0.397820    0.605751    0.433783     0.007504
AU2191   AU        0.434147    0.570687    0.432329     0.007504
AU2192   AU        0.433421    0.603718    0.468265     0.007504
AU2193   AU        0.468055    0.569375    0.468570     0.007504
AU2194   AU        0.467231    0.604890    0.434438     0.007504
AU2195   AU        0.502746    0.569293    0.433326     0.007504
AU2196   AU        0.503664    0.604221    0.468968     0.007504
AU2197   AU        0.540664    0.571209    0.471078     0.007504
AU2198   AU        0.540776    0.605922    0.434334     0.007504
AU2199   AU        0.574055    0.571777    0.431691     0.007504
AU2200   AU        0.575176    0.604009    0.469094     0.007504
PD2201   PD        0.607275    0.570195    0.468697     0.005394
PD2202   PD        0.607463    0.609869    0.434808     0.005394
PD2203   PD        0.649533    0.568971    0.432367     0.005394
PD2204   PD        0.640262    0.604221    0.468829     0.005394
PD2205   PD        0.687038    0.567361    0.466032     0.005394
PD2206   PD        0.689775    0.598963    0.427460     0.005394
AU2207   AU        0.723568    0.565730    0.430413     0.007504
PD2208   PD        0.725557    0.600777    0.465583     0.005394
AU2209   AU        0.757101    0.568954    0.467636     0.007504
AU2210   AU        0.758197    0.599065    0.430839     0.007504
AU2211   AU        0.793292    0.567654    0.431380     0.007504
AU2212   AU        0.792110    0.597856    0.465221     0.007504
PD2213   PD        0.826615    0.567193    0.465594     0.005394
AU2214   AU        0.828236    0.596927    0.428970     0.007504
PD2215   PD        0.075356    0.636521    0.435375     0.005394
PD2216   PD        0.078565    0.671109    0.468578     0.005394
AU2217   AU        0.112191    0.638193    0.468681     0.007504
PD2218   PD        0.113010    0.671267    0.434631     0.005394
AU2219   AU        0.147050    0.637832    0.433565     0.007504
PD2220   PD        0.149138    0.669211    0.469577     0.005394
AU2221   AU        0.179760    0.637673    0.470191     0.007504
AU2222   AU        0.180094    0.670135    0.435184     0.007504
AU2223   AU        0.216074    0.637258    0.434916     0.007504
AU2224   AU        0.215672    0.672812    0.470137     0.007504
AU2225   AU        0.251737    0.638952    0.470684     0.007504
AU2226   AU        0.251992    0.672209    0.434891     0.007504
AU2227   AU        0.287759    0.639189    0.435911     0.007504
AU2228   AU        0.286732    0.671057    0.469509     0.007504
AU2229   AU        0.322932    0.637823    0.468969     0.007504
AU2230   AU        0.324555    0.671422    0.434037     0.007504
AU2231   AU        0.358791    0.636183    0.433199     0.007504
AU2232   AU        0.359895    0.672996    0.470105     0.007504
AU2233   AU        0.397824    0.638583    0.467563     0.007504
AU2234   AU        0.397157    0.670711    0.431615     0.007504
AU2235   AU        0.431954    0.638375    0.431419     0.007504
AU2236   AU        0.433002    0.671744    0.470268     0.007504
AU2237   AU        0.469405    0.637958    0.467882     0.007504
PD2238   PD        0.466944    0.671597    0.433226     0.005394
AU2239   AU        0.505385    0.637828    0.431947     0.007504
AU2240   AU        0.503976    0.671035    0.470963     0.007504
AU2241   AU        0.540385    0.638506    0.470457     0.007504
AU2242   AU        0.537264    0.671004    0.433922     0.007504
AU2243   AU        0.576661    0.638106    0.433948     0.007504
AU2244   AU        0.574825    0.673260    0.469935     0.007504
AU2245   AU        0.610432    0.640037    0.471114     0.007504
AU2246   AU        0.611064    0.673056    0.434425     0.007504
PD2247   PD        0.644565    0.639878    0.432693     0.005394
PD2248   PD        0.645583    0.674123    0.469512     0.005394
PD2249   PD        0.679983    0.641785    0.469473     0.005394
PD2250   PD        0.682543    0.671323    0.432483     0.005394
PD2251   PD        0.725077    0.632687    0.429197     0.005394
PD2252   PD        0.715155    0.674206    0.471958     0.005394
PD2253   PD        0.759792    0.631678    0.464725     0.005394
PD2254   PD        0.760149    0.665916    0.424254     0.005394
PD2255   PD        0.792767    0.629173    0.429958     0.005394
PD2256   PD        0.789280    0.669171    0.451912     0.005394
PD2257   PD        0.112421    0.704009    0.469046     0.005394
AU2258   AU        0.146474    0.702097    0.434468     0.007504
PD2259   PD        0.144841    0.736220    0.467381     0.005394
AU2260   AU        0.180698    0.703554    0.470923     0.007504
PD2261   PD        0.180965    0.738286    0.437432     0.005394
AU2262   AU        0.215375    0.702509    0.433797     0.007504
PD2263   PD        0.215395    0.735936    0.467723     0.005394
PD2264   PD        0.249857    0.703835    0.470076     0.005394
PD2265   PD        0.251240    0.735579    0.435597     0.005394
AU2266   AU        0.290246    0.704803    0.434522     0.007504
AU2267   AU        0.287425    0.735985    0.469170     0.007504
AU2268   AU        0.325142    0.704517    0.469257     0.007504
AU2269   AU        0.326348    0.736759    0.432676     0.007504
AU2270   AU        0.361182    0.703831    0.434883     0.007504
PD2271   PD        0.361253    0.737571    0.470789     0.005394
AU2272   AU        0.397072    0.704437    0.471212     0.007504
PD2273   PD        0.399636    0.737033    0.433577     0.005394
AU2274   AU        0.432192    0.703568    0.433140     0.007504
AU2275   AU        0.432488    0.737634    0.469281     0.007504
AU2276   AU        0.469826    0.704079    0.468169     0.007504
PD2277   PD        0.471188    0.737453    0.430153     0.005394
PD2278   PD        0.504668    0.704443    0.433522     0.005394
AU2279   AU        0.503278    0.737458    0.467283     0.007504
AU2280   AU        0.539073    0.706209    0.469883     0.007504
AU2281   AU        0.538305    0.737371    0.433794     0.007504
AU2282   AU        0.572772    0.704650    0.432436     0.007504
AU2283   AU        0.575582    0.736184    0.469222     0.007504
AU2284   AU        0.609907    0.705986    0.469478     0.007504
AU2285   AU        0.610619    0.736375    0.433643     0.007504
PD2286   PD        0.647422    0.705806    0.435385     0.005394
PD2287   PD        0.642993    0.740419    0.468923     0.005394
PD2288   PD        0.681729    0.706027    0.470291     0.005394
PD2289   PD        0.681631    0.736841    0.434901     0.005394
PD2290   PD        0.722202    0.700711    0.435253     0.005394
PD2291   PD        0.717324    0.740031    0.473383     0.005394
PD2292   PD        0.750901    0.710457    0.472896     0.005394
PD2293   PD        0.140926    0.768131    0.502614     0.005394
PD2294   PD        0.218073    0.767301    0.435074     0.005394
PD2295   PD        0.253734    0.769273    0.468682     0.005394
PD2296   PD        0.253775    0.803414    0.435206     0.005394
AU2297   AU        0.288617    0.769394    0.434261     0.007504
PD2298   PD        0.290198    0.800741    0.470807     0.005394
AU2299   AU        0.325126    0.770104    0.470645     0.007504
PD2300   PD        0.329550    0.800808    0.434583     0.005394
PD2301   PD        0.364152    0.768952    0.435758     0.005394
PD2302   PD        0.361244    0.804344    0.471149     0.005394
PD2303   PD        0.397830    0.771121    0.467639     0.005394
PD2304   PD        0.396310    0.801052    0.430870     0.005394
PD2305   PD        0.433107    0.769900    0.430858     0.005394
PD2306   PD        0.433770    0.801126    0.464118     0.005394
PD2307   PD        0.468123    0.769227    0.469572     0.005394
PD2308   PD        0.468732    0.799999    0.431804     0.005394
AU2309   AU        0.504456    0.768548    0.432746     0.007504
PD2310   PD        0.504937    0.800609    0.468274     0.005394
PD2311   PD        0.540295    0.769632    0.468275     0.005394
PD2312   PD        0.539773    0.802123    0.431817     0.005394
PD2313   PD        0.574855    0.768195    0.433299     0.005394
PD2314   PD        0.574964    0.801538    0.466881     0.005394
PD2315   PD        0.608629    0.769174    0.468765     0.005394
PD2316   PD        0.612454    0.805116    0.435666     0.005394
PD2317   PD        0.645191    0.770553    0.430909     0.005394
PD2318   PD        0.679066    0.773693    0.467798     0.005394
PD2319   PD        0.363011    0.834437    0.433032     0.005394
PD2320   PD        0.396350    0.832954    0.466328     0.005394
PD2321   PD        0.434281    0.833347    0.432542     0.005394
PD2322   PD        0.502579    0.872102    0.473656     0.005394
PD2323   PD        0.503666    0.832947    0.431425     0.005394
PD2324   PD        0.218427    0.072293    0.468699     0.005394
PD2325   PD        0.289343    0.071286    0.543791     0.005394
PD2326   PD        0.323986    0.070390    0.508074     0.005394
PD2327   PD        0.357023    0.067815    0.543529     0.005394
PD2328   PD        0.400582    0.071340    0.508079     0.005394
PD2329   PD        0.434909    0.038559    0.505548     0.005394
PD2330   PD        0.435702    0.070080    0.541555     0.005394
AU2331   AU        0.469246    0.072954    0.505689     0.007504
AU2332   AU        0.504138    0.069529    0.541380     0.007504
PD2333   PD        0.540230    0.037253    0.542479     0.005394
PD2334   PD        0.576496    0.073329    0.541970     0.005394
PD2335   PD        0.610773    0.070650    0.505838     0.005394
PD2336   PD        0.183145    0.138725    0.502761     0.005394
PD2337   PD        0.216222    0.105049    0.503821     0.005394
AU2338   AU        0.216594    0.138168    0.539122     0.007504
PD2339   PD        0.251922    0.102714    0.545426     0.005394
PD2340   PD        0.253089    0.134173    0.506725     0.005394
PD2341   PD        0.289805    0.103347    0.508105     0.005394
PD2342   PD        0.290112    0.135737    0.541705     0.005394
AU2343   AU        0.323333    0.103048    0.543577     0.007504
AU2344   AU        0.324343    0.136534    0.506913     0.007504
AU2345   AU        0.359275    0.104227    0.509232     0.007504
AU2346   AU        0.361420    0.136511    0.541956     0.007504
PD2347   PD        0.396842    0.101658    0.543499     0.005394
AU2348   AU        0.399038    0.135522    0.509283     0.007504
AU2349   AU        0.434267    0.103081    0.508695     0.007504
PD2350   PD        0.432437    0.133729    0.542129     0.005394
AU2351   AU        0.469839    0.101659    0.541396     0.007504
AU2352   AU        0.470259    0.135521    0.506259     0.007504
AU2353   AU        0.505710    0.103261    0.506887     0.007504
AU2354   AU        0.504150    0.134452    0.541662     0.007504
PD2355   PD        0.537891    0.102060    0.536690     0.005394
AU2356   AU        0.541376    0.136312    0.507354     0.007504
PD2357   PD        0.576295    0.102843    0.506671     0.005394
AU2358   AU        0.577638    0.135368    0.542164     0.007504
AU2359   AU        0.610283    0.102036    0.541930     0.007504
AU2360   AU        0.612457    0.134074    0.507050     0.007504
PD2361   PD        0.645882    0.103894    0.507469     0.005394
PD2362   PD        0.648977    0.138522    0.541355     0.005394
PD2363   PD        0.683763    0.133845    0.508591     0.005394
PD2364   PD        0.113657    0.203882    0.505170     0.005394
PD2365   PD        0.145906    0.168979    0.505018     0.005394
PD2366   PD        0.147451    0.204101    0.537976     0.005394
PD2367   PD        0.182139    0.170074    0.541626     0.005394
PD2368   PD        0.181936    0.201551    0.503965     0.005394
PD2369   PD        0.221636    0.170058    0.504528     0.005394
AU2370   AU        0.217454    0.201653    0.540980     0.007504
PD2371   PD        0.255220    0.169042    0.541133     0.005394
PD2372   PD        0.254859    0.203305    0.503437     0.005394
AU2373   AU        0.287490    0.170235    0.505627     0.007504
AU2374   AU        0.292392    0.201435    0.543371     0.007504
AU2375   AU        0.325297    0.168194    0.541136     0.007504
AU2376   AU        0.322799    0.200440    0.506369     0.007504
AU2377   AU        0.359651    0.168801    0.505624     0.007504
AU2378   AU        0.358791    0.200504    0.541800     0.007504
AU2379   AU        0.395065    0.169036    0.543244     0.007504
PD2380   PD        0.396346    0.202438    0.508899     0.005394
AU2381   AU        0.433742    0.167668    0.507614     0.007504
AU2382   AU        0.431435    0.200449    0.543995     0.007504
AU2383   AU        0.469970    0.168166    0.542469     0.007504
AU2384   AU        0.469588    0.199240    0.506766     0.007504
AU2385   AU        0.506512    0.167337    0.507982     0.007504
AU2386   AU        0.505407    0.201852    0.543715     0.007504
AU2387   AU        0.541587    0.168630    0.542133     0.007504
AU2388   AU        0.543158    0.200777    0.505820     0.007504
AU2389   AU        0.577785    0.167929    0.506684     0.007504
AU2390   AU        0.576002    0.201298    0.540685     0.007504
AU2391   AU        0.613598    0.167781    0.541803     0.007504
AU2392   AU        0.611616    0.201400    0.506868     0.007504
PD2393   PD        0.647240    0.168217    0.505138     0.005394
AU2394   AU        0.649920    0.200840    0.540491     0.007504
PD2395   PD        0.683330    0.169925    0.538943     0.005394
PD2396   PD        0.683655    0.203278    0.506980     0.005394
PD2397   PD        0.718660    0.134854    0.541657     0.005394
AU2398   AU        0.717747    0.203811    0.543886     0.007504
PD2399   PD        0.751996    0.202039    0.505982     0.005394
PD2400   PD        0.041924    0.273434    0.505874     0.005394
PD2401   PD        0.073582    0.241024    0.504499     0.005394
PD2402   PD        0.075647    0.273745    0.542455     0.005394
PD2403   PD        0.113345    0.235795    0.538928     0.005394
AU2404   AU        0.109760    0.272739    0.507172     0.007504
PD2405   PD        0.148364    0.236054    0.505875     0.005394
PD2406   PD        0.143993    0.271053    0.544278     0.005394
PD2407   PD        0.179402    0.236082    0.542376     0.005394
PD2408   PD        0.181210    0.268469    0.508881     0.005394
AU2409   AU        0.216696    0.233756    0.504744     0.007504
AU2410   AU        0.216810    0.266531    0.543432     0.007504
AU2411   AU        0.253623    0.235464    0.541897     0.007504
AU2412   AU        0.252855    0.266776    0.506013     0.007504
AU2413   AU        0.289944    0.236630    0.507645     0.007504
PD2414   PD        0.288308    0.267294    0.543897     0.005394
AU2415   AU        0.325195    0.233668    0.543616     0.007504
AU2416   AU        0.324338    0.268255    0.505228     0.007504
AU2417   AU        0.359337    0.232274    0.505155     0.007504
AU2418   AU        0.360263    0.268656    0.540761     0.007504
AU2419   AU        0.394913    0.234142    0.543497     0.007504
AU2420   AU        0.396914    0.267364    0.504080     0.007504
AU2421   AU        0.435622    0.233944    0.503773     0.007504
AU2422   AU        0.432923    0.267842    0.542141     0.007504
AU2423   AU        0.469055    0.234019    0.543263     0.007504
AU2424   AU        0.468147    0.266664    0.506623     0.007504
AU2425   AU        0.504176    0.233141    0.505967     0.007504
AU2426   AU        0.503942    0.266836    0.543801     0.007504
AU2427   AU        0.540169    0.233702    0.543017     0.007504
AU2428   AU        0.538769    0.266626    0.508191     0.007504
AU2429   AU        0.576790    0.234331    0.505268     0.007504
AU2430   AU        0.576340    0.267385    0.542081     0.007504
AU2431   AU        0.613399    0.232937    0.542304     0.007504
AU2432   AU        0.611448    0.268579    0.506827     0.007504
AU2433   AU        0.647917    0.234335    0.506657     0.007504
AU2434   AU        0.648053    0.267868    0.540277     0.007504
PD2435   PD        0.682583    0.237773    0.542569     0.005394
AU2436   AU        0.684875    0.267426    0.506268     0.007504
AU2437   AU        0.719309    0.235050    0.506938     0.007504
AU2438   AU        0.720790    0.266404    0.542532     0.007504
PD2439   PD        0.753564    0.232237    0.543914     0.005394
PD2440   PD        0.752289    0.267145    0.506592     0.005394
PD2441   PD        0.785789    0.234903    0.504922     0.005394
PD2442   PD        0.788030    0.265710    0.542380     0.005394
PD2443   PD        0.824027    0.270620    0.503716     0.005394
PD2444   PD        0.040858    0.303589    0.541113     0.005394
PD2445   PD        0.040483    0.337092    0.508350     0.005394
AU2446   AU        0.076675    0.306130    0.508573     0.007504
AU2447   AU        0.078177    0.338664    0.542201     0.007504
AU2448   AU        0.109740    0.304658    0.543603     0.007504
AU2449   AU        0.110970    0.337138    0.507175     0.007504
AU2450   AU        0.145226    0.303267    0.507557     0.007504
AU2451   AU        0.145770    0.335830    0.541706     0.007504
PD2452   PD        0.180398    0.302451    0.544544     0.005394
AU2453   AU        0.180089    0.336329    0.504472     0.007504
PD2454   PD        0.217621    0.303155    0.506412     0.005394
AU2455   AU        0.214967    0.335199    0.542617     0.007504
PD2456   PD        0.250528    0.301559    0.540794     0.005394
AU2457   AU        0.252493    0.335669    0.504287     0.007504
AU2458   AU        0.288430    0.301830    0.504627     0.007504
AU2459   AU        0.287917    0.335951    0.543327     0.007504
AU2460   AU        0.324110    0.302296    0.541577     0.007504
AU2461   AU        0.323724    0.334746    0.505124     0.007504
AU2462   AU        0.361049    0.301749    0.504430     0.007504
AU2463   AU        0.360439    0.334162    0.541211     0.007504
AU2464   AU        0.396730    0.300635    0.542890     0.007504
AU2465   AU        0.397442    0.334559    0.507252     0.007504
AU2466   AU        0.432550    0.300445    0.506243     0.007504
AU2467   AU        0.434670    0.333978    0.541653     0.007504
AU2468   AU        0.468624    0.301153    0.543670     0.007504
AU2469   AU        0.467597    0.333209    0.506202     0.007504
AU2470   AU        0.504120    0.301056    0.508085     0.007504
AU2471   AU        0.505155    0.335486    0.542723     0.007504
AU2472   AU        0.538592    0.299833    0.541489     0.007504
AU2473   AU        0.543475    0.334047    0.506513     0.007504
AU2474   AU        0.575885    0.299548    0.504499     0.007504
AU2475   AU        0.577518    0.334475    0.540803     0.007504
AU2476   AU        0.612766    0.301005    0.539972     0.007504
AU2477   AU        0.614301    0.334394    0.505419     0.007504
AU2478   AU        0.649661    0.301435    0.505616     0.007504
AU2479   AU        0.648072    0.334808    0.543169     0.007504
AU2480   AU        0.686025    0.301425    0.541947     0.007504
AU2481   AU        0.682667    0.333179    0.506986     0.007504
PD2482   PD        0.720279    0.301541    0.505378     0.005394
PD2483   PD        0.722358    0.335961    0.543984     0.005394
PD2484   PD        0.753025    0.298694    0.540966     0.005394
PD2485   PD        0.754735    0.336971    0.505057     0.005394
PD2486   PD        0.788104    0.301269    0.506193     0.005394
PD2487   PD        0.787881    0.335751    0.539510     0.005394
PD2488   PD        0.822367    0.305012    0.542831     0.005394
PD2489   PD        0.823399    0.333157    0.505710     0.005394
PD2490   PD        0.042637    0.372412    0.542633     0.005394
PD2491   PD        0.040461    0.402600    0.504961     0.005394
PD2492   PD        0.075858    0.368972    0.506663     0.005394
PD2493   PD        0.077496    0.401500    0.542251     0.005394
AU2494   AU        0.112330    0.371472    0.540764     0.007504
AU2495   AU        0.111272    0.404256    0.505720     0.007504
AU2496   AU        0.146042    0.370485    0.505043     0.007504
AU2497   AU        0.146351    0.403422    0.542849     0.007504
AU2498   AU        0.180078    0.371409    0.541352     0.007504
AU2499   AU        0.179363    0.403664    0.506063     0.007504
AU2500   AU        0.216476    0.368237    0.507151     0.007504
AU2501   AU        0.217499    0.403403    0.543091     0.007504
AU2502   AU        0.254353    0.368305    0.542152     0.007504
AU2503   AU        0.253578    0.402895    0.506629     0.007504
AU2504   AU        0.287402    0.368254    0.503607     0.007504
AU2505   AU        0.288802    0.400694    0.541057     0.007504
AU2506   AU        0.323813    0.368571    0.542305     0.007504
AU2507   AU        0.322217    0.401749    0.506004     0.007504
AU2508   AU        0.359768    0.369456    0.506747     0.007504
AU2509   AU        0.360665    0.402253    0.542781     0.007504
AU2510   AU        0.397051    0.368763    0.540515     0.007504
AU2511   AU        0.396791    0.403593    0.504085     0.007504
AU2512   AU        0.433881    0.368348    0.507598     0.007504
AU2513   AU        0.431339    0.403411    0.539792     0.007504
AU2514   AU        0.469623    0.367397    0.540955     0.007504
AU2515   AU        0.469486    0.402878    0.503612     0.007504
AU2516   AU        0.504673    0.368515    0.505061     0.007504
AU2517   AU        0.504523    0.400568    0.539380     0.007504
AU2518   AU        0.539338    0.367798    0.542474     0.007504
AU2519   AU        0.542716    0.400636    0.505234     0.007504
AU2520   AU        0.578535    0.367405    0.507953     0.007504
AU2521   AU        0.578353    0.401847    0.542784     0.007504
AU2522   AU        0.614139    0.368804    0.541406     0.007504
AU2523   AU        0.613124    0.400561    0.507084     0.007504
AU2524   AU        0.649919    0.368951    0.504359     0.007504
AU2525   AU        0.649768    0.404065    0.541397     0.007504
AU2526   AU        0.684241    0.367476    0.539651     0.007504
PD2527   PD        0.684887    0.402567    0.503027     0.005394
PD2528   PD        0.720002    0.370648    0.505416     0.005394
AU2529   AU        0.718415    0.402088    0.541594     0.007504
AU2530   AU        0.754288    0.369360    0.540179     0.007504
AU2531   AU        0.754995    0.400893    0.505374     0.007504
AU2532   AU        0.791573    0.368906    0.503902     0.007504
AU2533   AU        0.790590    0.401995    0.539753     0.007504
PD2534   PD        0.862436    0.331669    0.539345     0.005394
PD2535   PD        0.825394    0.402730    0.506666     0.005394
PD2536   PD        0.004659    0.404063    0.547140     0.005394
PD2537   PD        0.041357    0.436317    0.543007     0.005394
PD2538   PD        0.042573    0.470397    0.501100     0.005394
PD2539   PD        0.078389    0.438103    0.506311     0.005394
PD2540   PD        0.076620    0.472257    0.540698     0.005394
AU2541   AU        0.111398    0.437668    0.539609     0.007504
AU2542   AU        0.111744    0.472786    0.505278     0.007504
AU2543   AU        0.145869    0.437466    0.505972     0.007504
AU2544   AU        0.145312    0.472914    0.540631     0.007504
AU2545   AU        0.179576    0.437763    0.543101     0.007504
AU2546   AU        0.181651    0.470485    0.506822     0.007504
AU2547   AU        0.215596    0.435253    0.505645     0.007504
AU2548   AU        0.216744    0.470899    0.539943     0.007504
AU2549   AU        0.253417    0.435347    0.542223     0.007504
AU2550   AU        0.252660    0.469276    0.503972     0.007504
AU2551   AU        0.287822    0.437880    0.505584     0.007504
AU2552   AU        0.288282    0.470548    0.542356     0.007504
AU2553   AU        0.325529    0.435674    0.543732     0.007504
AU2554   AU        0.323502    0.469114    0.503399     0.007504
AU2555   AU        0.359876    0.434484    0.503981     0.007504
AU2556   AU        0.360474    0.470346    0.541065     0.007504
AU2557   AU        0.396709    0.438633    0.540875     0.007504
AU2558   AU        0.396357    0.470322    0.503332     0.007504
AU2559   AU        0.433016    0.435255    0.504887     0.007504
AU2560   AU        0.433063    0.470386    0.539883     0.007504
AU2561   AU        0.468533    0.436424    0.538846     0.007504
AU2562   AU        0.468908    0.471477    0.504971     0.007504
AU2563   AU        0.505692    0.434387    0.504563     0.007504
AU2564   AU        0.505229    0.468181    0.541322     0.007504
AU2565   AU        0.540113    0.435980    0.540061     0.007504
AU2566   AU        0.538997    0.469688    0.506739     0.007504
AU2567   AU        0.578004    0.434725    0.506369     0.007504
AU2568   AU        0.576070    0.470590    0.539283     0.007504
AU2569   AU        0.614021    0.435246    0.540336     0.007504
AU2570   AU        0.613346    0.468348    0.506549     0.007504
AU2571   AU        0.647719    0.434633    0.505786     0.007504
AU2572   AU        0.649470    0.468598    0.541943     0.007504
AU2573   AU        0.685500    0.435951    0.540563     0.007504
AU2574   AU        0.685983    0.470098    0.503138     0.007504
AU2575   AU        0.722496    0.434055    0.506561     0.007504
AU2576   AU        0.721500    0.468055    0.542761     0.007504
PD2577   PD        0.753427    0.433006    0.543544     0.005394
AU2578   AU        0.755599    0.468164    0.505308     0.007504
AU2579   AU        0.789296    0.435239    0.506426     0.007504
PD2580   PD        0.788851    0.469480    0.540602     0.005394
PD2581   PD        0.824560    0.436363    0.541535     0.005394
PD2582   PD        0.823241    0.468438    0.505620     0.005394
PD2583   PD        0.899172    0.365534    0.461782     0.005394
PD2584   PD        0.039808    0.501177    0.538350     0.005394
PD2585   PD        0.042055    0.539254    0.505898     0.005394
PD2586   PD        0.075868    0.505333    0.506064     0.005394
AU2587   AU        0.073867    0.537601    0.541675     0.007504
AU2588   AU        0.110249    0.505024    0.542445     0.007504
AU2589   AU        0.111228    0.537247    0.505306     0.007504
AU2590   AU        0.147238    0.505262    0.506421     0.007504
AU2591   AU        0.146394    0.537523    0.538458     0.007504
AU2592   AU        0.181020    0.505046    0.540637     0.007504
AU2593   AU        0.181174    0.537952    0.506376     0.007504
AU2594   AU        0.216357    0.503998    0.504500     0.007504
AU2595   AU        0.217056    0.537997    0.538760     0.007504
AU2596   AU        0.252577    0.505072    0.539968     0.007504
AU2597   AU        0.253355    0.539570    0.503657     0.007504
AU2598   AU        0.287695    0.503849    0.505538     0.007504
AU2599   AU        0.286984    0.538472    0.541370     0.007504
AU2600   AU        0.324188    0.505135    0.541508     0.007504
AU2601   AU        0.325078    0.539049    0.505342     0.007504
AU2602   AU        0.360804    0.504324    0.506876     0.007504
AU2603   AU        0.360545    0.537730    0.543103     0.007504
AU2604   AU        0.396719    0.502865    0.541947     0.007504
AU2605   AU        0.395746    0.537953    0.505285     0.007504
AU2606   AU        0.432964    0.503603    0.507601     0.007504
AU2607   AU        0.431627    0.537922    0.542256     0.007504
AU2608   AU        0.470074    0.504318    0.539545     0.007504
AU2609   AU        0.468429    0.537942    0.507523     0.007504
AU2610   AU        0.505299    0.502407    0.506790     0.007504
AU2611   AU        0.504143    0.536956    0.542784     0.007504
AU2612   AU        0.539999    0.502709    0.542731     0.007504
AU2613   AU        0.540921    0.537162    0.506256     0.007504
AU2614   AU        0.577524    0.502834    0.503779     0.007504
AU2615   AU        0.577686    0.537773    0.542046     0.007504
AU2616   AU        0.612527    0.502936    0.540380     0.007504
AU2617   AU        0.609661    0.536460    0.503139     0.007504
PD2618   PD        0.648738    0.499422    0.505020     0.005394
PD2619   PD        0.646781    0.536907    0.541362     0.005394
AU2620   AU        0.687441    0.502904    0.541569     0.007504
PD2621   PD        0.688383    0.536344    0.504610     0.005394
AU2622   AU        0.720796    0.501555    0.503179     0.007504
AU2623   AU        0.722162    0.535127    0.539481     0.007504
AU2624   AU        0.754602    0.501754    0.539464     0.007504
AU2625   AU        0.755360    0.535983    0.501452     0.007504
AU2626   AU        0.788842    0.502377    0.505595     0.007504
PD2627   PD        0.790671    0.534269    0.537500     0.005394
PD2628   PD        0.822766    0.499967    0.540655     0.005394
PD2629   PD        0.826567    0.535575    0.503262     0.005394
PD2630   PD        0.040242    0.571184    0.540413     0.005394
PD2631   PD        0.043542    0.604847    0.502843     0.005394
AU2632   AU        0.076388    0.570748    0.506859     0.007504
PD2633   PD        0.078542    0.603278    0.537766     0.005394
PD2634   PD        0.109978    0.571309    0.540301     0.005394
AU2635   AU        0.112955    0.604612    0.505168     0.007504
AU2636   AU        0.145718    0.570276    0.504692     0.007504
AU2637   AU        0.147091    0.605393    0.541846     0.007504
AU2638   AU        0.181984    0.571615    0.541151     0.007504
AU2639   AU        0.180958    0.605865    0.506370     0.007504
AU2640   AU        0.216027    0.572864    0.505633     0.007504
AU2641   AU        0.216436    0.604488    0.539778     0.007504
AU2642   AU        0.250929    0.572365    0.541658     0.007504
AU2643   AU        0.250890    0.604678    0.504762     0.007504
AU2644   AU        0.288531    0.571289    0.503870     0.007504
AU2645   AU        0.288106    0.603766    0.539963     0.007504
AU2646   AU        0.324181    0.572186    0.541269     0.007504
AU2647   AU        0.325111    0.604454    0.505676     0.007504
AU2648   AU        0.359653    0.573257    0.504641     0.007504
AU2649   AU        0.360510    0.605524    0.542455     0.007504
AU2650   AU        0.397732    0.571874    0.541231     0.007504
AU2651   AU        0.395272    0.605922    0.505639     0.007504
AU2652   AU        0.431885    0.572414    0.503465     0.007504
AU2653   AU        0.433988    0.605245    0.541393     0.007504
AU2654   AU        0.470660    0.571726    0.540227     0.007504
AU2655   AU        0.467914    0.605143    0.504965     0.007504
AU2656   AU        0.503221    0.572010    0.504051     0.007504
AU2657   AU        0.505789    0.604182    0.539966     0.007504
AU2658   AU        0.539216    0.570405    0.538890     0.007504
AU2659   AU        0.538919    0.604824    0.506221     0.007504
AU2660   AU        0.576233    0.571722    0.506855     0.007504
AU2661   AU        0.574246    0.604628    0.542096     0.007504
PD2662   PD        0.610837    0.569912    0.542374     0.005394
AU2663   AU        0.609944    0.607074    0.505979     0.007504
PD2664   PD        0.645081    0.572155    0.507831     0.005394
PD2665   PD        0.647349    0.607179    0.537913     0.005394
PD2666   PD        0.685935    0.567114    0.544309     0.005394
PD2667   PD        0.684880    0.598625    0.506800     0.005394
PD2668   PD        0.722675    0.566961    0.502277     0.005394
PD2669   PD        0.721917    0.598474    0.541404     0.005394
PD2670   PD        0.756660    0.565659    0.539393     0.005394
PD2671   PD        0.758572    0.599105    0.500651     0.005394
PD2672   PD        0.793817    0.568302    0.501591     0.005394
PD2673   PD        0.845185    0.651963    0.585862     0.005394
PD2674   PD        0.824482    0.565155    0.543053     0.005394
PD2675   PD        0.819654    0.612632    0.501332     0.005394
PD2676   PD        0.078762    0.637231    0.505508     0.005394
PD2677   PD        0.113001    0.637477    0.541642     0.005394
PD2678   PD        0.112683    0.671568    0.503345     0.005394
AU2679   AU        0.145729    0.638266    0.504749     0.007504
PD2680   PD        0.147782    0.668027    0.540394     0.005394
PD2681   PD        0.182688    0.638729    0.542919     0.005394
AU2682   AU        0.181254    0.670162    0.506543     0.007504
AU2683   AU        0.217065    0.638846    0.506560     0.007504
AU2684   AU        0.216935    0.672710    0.541605     0.007504
AU2685   AU        0.253940    0.636994    0.539411     0.007504
AU2686   AU        0.253346    0.673201    0.506043     0.007504
AU2687   AU        0.290175    0.638446    0.507154     0.007504
AU2688   AU        0.290971    0.671931    0.541543     0.007504
AU2689   AU        0.325976    0.639025    0.540213     0.007504
AU2690   AU        0.325452    0.670540    0.502588     0.007504
AU2691   AU        0.360746    0.638800    0.504842     0.007504
AU2692   AU        0.360825    0.671770    0.539929     0.007504
AU2693   AU        0.397744    0.638609    0.541957     0.007504
AU2694   AU        0.399358    0.668813    0.504476     0.007504
AU2695   AU        0.435006    0.638165    0.502537     0.007504
AU2696   AU        0.434027    0.672417    0.542263     0.007504
AU2697   AU        0.469784    0.637985    0.540125     0.007504
AU2698   AU        0.468745    0.671437    0.504746     0.007504
AU2699   AU        0.504376    0.638588    0.505691     0.007504
AU2700   AU        0.504863    0.672422    0.540445     0.007504
AU2701   AU        0.540770    0.639864    0.539916     0.007504
AU2702   AU        0.539774    0.671725    0.504478     0.007504
AU2703   AU        0.574637    0.639988    0.504918     0.007504
AU2704   AU        0.576207    0.673081    0.539521     0.007504
PD2705   PD        0.609353    0.638435    0.540082     0.005394
AU2706   AU        0.610709    0.672399    0.504123     0.007504
PD2707   PD        0.646412    0.639976    0.504952     0.005394
AU2708   AU        0.646001    0.674016    0.538602     0.007504
PD2709   PD        0.682443    0.641147    0.542052     0.005394
PD2710   PD        0.679713    0.673722    0.506352     0.005394
PD2711   PD        0.716297    0.645038    0.505903     0.005394
PD2712   PD        0.717791    0.674809    0.545289     0.005394
PD2713   PD        0.749225    0.640934    0.544769     0.005394
PD2714   PD        0.747448    0.700931    0.540762     0.005394
PD2715   PD        0.793560    0.650853    0.496330     0.005394
PD2716   PD        0.144807    0.702757    0.502813     0.005394
AU2717   AU        0.181282    0.704839    0.539603     0.007504
PD2718   PD        0.179918    0.740039    0.501738     0.005394
PD2719   PD        0.215977    0.703629    0.504158     0.005394
PD2720   PD        0.219791    0.735462    0.540550     0.005394
AU2721   AU        0.254228    0.703326    0.541319     0.007504
PD2722   PD        0.254909    0.735862    0.506435     0.005394
AU2723   AU        0.292159    0.705472    0.506083     0.007504
PD2724   PD        0.290586    0.736362    0.540496     0.005394
PD2725   PD        0.326011    0.702598    0.541878     0.005394
AU2726   AU        0.324392    0.737966    0.505058     0.007504
AU2727   AU        0.360943    0.705426    0.507667     0.007504
AU2728   AU        0.360224    0.739449    0.541065     0.007504
AU2729   AU        0.397448    0.704633    0.540429     0.007504
AU2730   AU        0.396595    0.736847    0.505059     0.007504
AU2731   AU        0.433624    0.703764    0.504359     0.007504
AU2732   AU        0.435770    0.736481    0.540529     0.007504
AU2733   AU        0.469515    0.705391    0.540796     0.007504
AU2734   AU        0.468024    0.735629    0.504015     0.007504
AU2735   AU        0.504706    0.703508    0.503868     0.007504
AU2736   AU        0.505107    0.736151    0.541422     0.007504
AU2737   AU        0.539056    0.703311    0.539609     0.007504
AU2738   AU        0.537913    0.736854    0.504592     0.007504
AU2739   AU        0.574345    0.705041    0.505553     0.007504
AU2740   AU        0.572094    0.736007    0.540587     0.007504
AU2741   AU        0.610100    0.705391    0.539521     0.007504
AU2742   AU        0.607351    0.736192    0.505377     0.007504
AU2743   AU        0.644527    0.706167    0.505109     0.007504
PD2744   PD        0.646735    0.735078    0.540715     0.005394
PD2745   PD        0.678890    0.706879    0.541367     0.005394
AU2746   AU        0.679868    0.736747    0.504881     0.007504
PD2747   PD        0.714387    0.706180    0.504605     0.005394
PD2748   PD        0.220133    0.768575    0.504464     0.005394
PD2749   PD        0.255429    0.768255    0.541450     0.005394
PD2750   PD        0.256808    0.801069    0.504276     0.005394
AU2751   AU        0.289564    0.768634    0.503663     0.007504
AU2752   AU        0.289184    0.800876    0.538983     0.007504
PD2753   PD        0.325691    0.769860    0.539429     0.005394
PD2754   PD        0.324988    0.799759    0.506191     0.005394
PD2755   PD        0.363365    0.769586    0.505275     0.005394
PD2756   PD        0.364368    0.801610    0.540516     0.005394
PD2757   PD        0.396772    0.767054    0.541897     0.005394
PD2758   PD        0.396579    0.805559    0.503901     0.005394
PD2759   PD        0.431277    0.770701    0.505956     0.005394
PD2760   PD        0.432470    0.801302    0.542270     0.005394
AU2761   AU        0.468693    0.770298    0.539957     0.007504
PD2762   PD        0.468247    0.804291    0.504565     0.005394
PD2763   PD        0.503140    0.768176    0.503547     0.005394
PD2764   PD        0.502487    0.801609    0.539138     0.005394
AU2765   AU        0.539042    0.769611    0.538330     0.007504
PD2766   PD        0.540603    0.800605    0.505053     0.005394
PD2767   PD        0.576277    0.767917    0.504453     0.005394
PD2768   PD        0.575038    0.799032    0.539744     0.005394
PD2769   PD        0.612938    0.768214    0.541076     0.005394
PD2770   PD        0.605183    0.803720    0.501658     0.005394
PD2771   PD        0.646023    0.767823    0.502651     0.005394
PD2772   PD        0.432273    0.833709    0.503258     0.005394
PD2773   PD        0.318929    0.068402    0.579559     0.005394
PD2774   PD        0.368253    0.070817    0.611217     0.005394
PD2775   PD        0.395344    0.073066    0.574520     0.005394
PD2776   PD        0.396118    0.029142    0.600521     0.005394
PD2777   PD        0.468693    0.072248    0.578504     0.005394
PD2778   PD        0.513390    0.041629    0.661124     0.005394
PD2779   PD        0.541832    0.073505    0.575197     0.005394
PD2780   PD        0.185012    0.140086    0.576192     0.005394
PD2781   PD        0.151725    0.133815    0.606757     0.005394
PD2782   PD        0.252239    0.102559    0.613834     0.005394
PD2783   PD        0.253582    0.136747    0.577547     0.005394
PD2784   PD        0.286998    0.105345    0.579217     0.005394
PD2785   PD        0.287500    0.136923    0.610546     0.005394
PD2786   PD        0.326112    0.102311    0.611117     0.005394
AU2787   AU        0.323237    0.135726    0.576526     0.007504
AU2788   AU        0.359404    0.104478    0.575586     0.007504
PD2789   PD        0.364451    0.135327    0.611177     0.005394
PD2790   PD        0.400699    0.102426    0.610716     0.005394
AU2791   AU        0.398880    0.133914    0.576873     0.007504
AU2792   AU        0.434620    0.102338    0.575665     0.007504
PD2793   PD        0.434908    0.136658    0.609768     0.005394
PD2794   PD        0.471490    0.104711    0.612515     0.005394
AU2795   AU        0.470061    0.134643    0.574917     0.007504
AU2796   AU        0.504848    0.103075    0.575201     0.007504
PD2797   PD        0.505519    0.134168    0.610351     0.005394
PD2798   PD        0.537193    0.104651    0.610420     0.005394
AU2799   AU        0.540094    0.134087    0.574516     0.007504
PD2800   PD        0.576436    0.104881    0.576054     0.005394
PD2801   PD        0.575284    0.133632    0.614101     0.005394
PD2802   PD        0.648883    0.104252    0.575855     0.005394
PD2803   PD        0.611058    0.133673    0.576930     0.005394
PD2804   PD        0.649754    0.136128    0.610202     0.005394
PD2805   PD        0.680255    0.099431    0.541701     0.005394
PD2806   PD        0.108838    0.206645    0.572955     0.005394
PD2807   PD        0.144158    0.170752    0.574040     0.005394
PD2808   PD        0.148410    0.202857    0.612592     0.005394
AU2809   AU        0.185395    0.170495    0.612572     0.007504
PD2810   PD        0.181884    0.200382    0.575933     0.005394
PD2811   PD        0.219056    0.169229    0.578232     0.005394
AU2812   AU        0.219886    0.204738    0.613868     0.007504
AU2813   AU        0.252165    0.169776    0.613545     0.007504
AU2814   AU        0.254140    0.202585    0.577049     0.007504
PD2815   PD        0.291680    0.169335    0.579132     0.005394
AU2816   AU        0.287457    0.202986    0.614150     0.007504
PD2817   PD        0.325865    0.169630    0.615998     0.005394
PD2818   PD        0.324635    0.200691    0.578588     0.005394
PD2819   PD        0.361017    0.169568    0.576646     0.005394
AU2820   AU        0.358214    0.200280    0.612404     0.007504
PD2821   PD        0.396861    0.171028    0.612163     0.005394
AU2822   AU        0.395371    0.203056    0.578023     0.007504
AU2823   AU        0.434625    0.168060    0.578035     0.007504
AU2824   AU        0.432632    0.200865    0.612527     0.007504
AU2825   AU        0.469358    0.168611    0.612814     0.007504
AU2826   AU        0.470020    0.203229    0.577624     0.007504
AU2827   AU        0.506932    0.168057    0.577233     0.007504
AU2828   AU        0.504339    0.200680    0.611741     0.007504
AU2829   AU        0.540816    0.167724    0.613158     0.007504
AU2830   AU        0.539825    0.201009    0.577162     0.007504
AU2831   AU        0.576683    0.168068    0.576880     0.007504
AU2832   AU        0.577862    0.200024    0.611903     0.007504
PD2833   PD        0.611890    0.169269    0.615417     0.005394
AU2834   AU        0.614371    0.201414    0.577724     0.007504
AU2835   AU        0.649258    0.169246    0.578856     0.007504
AU2836   AU        0.647901    0.203246    0.612662     0.007504
AU2837   AU        0.682467    0.169293    0.613745     0.007504
AU2838   AU        0.682624    0.201609    0.577012     0.007504
PD2839   PD        0.714111    0.164509    0.577157     0.005394
PD2840   PD        0.716796    0.200605    0.612907     0.005394
PD2841   PD        0.756122    0.201697    0.578782     0.005394
PD2842   PD        0.035802    0.271039    0.652070     0.005394
PD2843   PD        0.110355    0.237522    0.613548     0.005394
PD2844   PD        0.107360    0.271550    0.577175     0.005394
PD2845   PD        0.144335    0.236457    0.578050     0.005394
PD2846   PD        0.147142    0.272021    0.612087     0.005394
PD2847   PD        0.182656    0.232906    0.611092     0.005394
PD2848   PD        0.181777    0.268098    0.576304     0.005394
PD2849   PD        0.215409    0.235761    0.579728     0.005394
PD2850   PD        0.217839    0.268946    0.614423     0.005394
AU2851   AU        0.251809    0.235450    0.612411     0.007504
AU2852   AU        0.256459    0.268193    0.580100     0.007504
AU2853   AU        0.289860    0.235355    0.577863     0.007504
AU2854   AU        0.289618    0.269789    0.614413     0.007504
AU2855   AU        0.322970    0.234076    0.614271     0.007504
AU2856   AU        0.323615    0.268599    0.579749     0.007504
PD2857   PD        0.360218    0.231917    0.576537     0.005394
AU2858   AU        0.361497    0.266750    0.612765     0.007504
AU2859   AU        0.398767    0.233837    0.613754     0.007504
AU2860   AU        0.396726    0.266483    0.578628     0.007504
AU2861   AU        0.432887    0.235017    0.577533     0.007504
AU2862   AU        0.433778    0.266656    0.612007     0.007504
AU2863   AU        0.468116    0.234143    0.614379     0.007504
AU2864   AU        0.467268    0.265315    0.578500     0.007504
AU2865   AU        0.505526    0.234962    0.578096     0.007504
AU2866   AU        0.505371    0.268492    0.613559     0.007504
PD2867   PD        0.540786    0.234614    0.612404     0.005394
AU2868   AU        0.540645    0.266005    0.577459     0.007504
AU2869   AU        0.576978    0.233108    0.575587     0.007504
PD2870   PD        0.577498    0.264698    0.612225     0.005394
AU2871   AU        0.613067    0.234562    0.612973     0.007504
AU2872   AU        0.613767    0.266953    0.577451     0.007504
AU2873   AU        0.648676    0.234252    0.575673     0.007504
AU2874   AU        0.649383    0.265948    0.611250     0.007504
AU2875   AU        0.683170    0.234105    0.612548     0.007504
AU2876   AU        0.684315    0.268688    0.576828     0.007504
AU2877   AU        0.718237    0.236424    0.579365     0.007504
AU2878   AU        0.718742    0.269423    0.614612     0.007504
PD2879   PD        0.755128    0.238049    0.614290     0.005394
AU2880   AU        0.752763    0.267994    0.578220     0.007504
PD2881   PD        0.829137    0.309005    0.616848     0.005394
PD2882   PD        0.040435    0.338564    0.574519     0.005394
PD2883   PD        0.075332    0.306431    0.578837     0.005394
PD2884   PD        0.038203    0.373225    0.684907     0.005394
AU2885   AU        0.109365    0.304894    0.610209     0.007504
AU2886   AU        0.112265    0.338952    0.576926     0.007504
AU2887   AU        0.144190    0.302769    0.578041     0.007504
PD2888   PD        0.146308    0.337610    0.610920     0.005394
PD2889   PD        0.182147    0.303279    0.610261     0.005394
AU2890   AU        0.181566    0.335575    0.576897     0.007504
AU2891   AU        0.218797    0.301832    0.577627     0.007504
AU2892   AU        0.214840    0.336658    0.613125     0.007504
AU2893   AU        0.252863    0.301730    0.614157     0.007504
AU2894   AU        0.253000    0.335088    0.579700     0.007504
AU2895   AU        0.289827    0.302078    0.578536     0.007504
AU2896   AU        0.289283    0.336327    0.614716     0.007504
AU2897   AU        0.323604    0.300885    0.613961     0.007504
AU2898   AU        0.325769    0.336030    0.578229     0.007504
AU2899   AU        0.359121    0.300599    0.578252     0.007504
AU2900   AU        0.361442    0.335201    0.613755     0.007504
AU2901   AU        0.397998    0.299191    0.613587     0.007504
AU2902   AU        0.398144    0.333020    0.576809     0.007504
AU2903   AU        0.434273    0.302484    0.579242     0.007504
AU2904   AU        0.434993    0.334663    0.615713     0.007504
AU2905   AU        0.468253    0.300045    0.612898     0.007504
AU2906   AU        0.468496    0.334993    0.577961     0.007504
AU2907   AU        0.504517    0.301699    0.576615     0.007504
AU2908   AU        0.506064    0.333622    0.613025     0.007504
AU2909   AU        0.542548    0.300087    0.612032     0.007504
AU2910   AU        0.541447    0.334090    0.577390     0.007504
AU2911   AU        0.577364    0.297648    0.576323     0.007504
AU2912   AU        0.575217    0.333883    0.612627     0.007504
AU2913   AU        0.613526    0.299043    0.612023     0.007504
AU2914   AU        0.611638    0.334571    0.576358     0.007504
AU2915   AU        0.649159    0.300195    0.576506     0.007504
AU2916   AU        0.649581    0.334625    0.612308     0.007504
PD2917   PD        0.683604    0.302229    0.612374     0.005394
AU2918   AU        0.684174    0.335164    0.576672     0.007504
PD2919   PD        0.718945    0.299087    0.577872     0.005394
AU2920   AU        0.716401    0.335290    0.612520     0.007504
PD2921   PD        0.753405    0.303328    0.612831     0.005394
PD2922   PD        0.754757    0.333986    0.578689     0.005394
PD2923   PD        0.791913    0.300970    0.578238     0.005394
PD2924   PD        0.790547    0.333979    0.613645     0.005394
PD2925   PD        0.825075    0.333718    0.573706     0.005394
PD2926   PD        0.043357    0.369893    0.611135     0.005394
PD2927   PD        0.042862    0.404858    0.577484     0.005394
AU2928   AU        0.078186    0.369667    0.577717     0.007504
PD2929   PD        0.077660    0.405777    0.614221     0.005394
PD2930   PD        0.112128    0.371871    0.612476     0.005394
AU2931   AU        0.112981    0.401863    0.577432     0.007504
AU2932   AU        0.147345    0.370196    0.575839     0.007504
AU2933   AU        0.146017    0.403047    0.612485     0.007504
PD2934   PD        0.180694    0.372229    0.612552     0.005394
AU2935   AU        0.182096    0.404068    0.578469     0.007504
AU2936   AU        0.215778    0.369108    0.577072     0.007504
AU2937   AU        0.216871    0.405523    0.613371     0.007504
AU2938   AU        0.253285    0.369209    0.615091     0.007504
AU2939   AU        0.254168    0.402282    0.579680     0.007504
AU2940   AU        0.286950    0.367519    0.579231     0.007504
AU2941   AU        0.288773    0.402490    0.613419     0.007504
AU2942   AU        0.322937    0.369648    0.613191     0.007504
AU2943   AU        0.324355    0.402409    0.577054     0.007504
AU2944   AU        0.360261    0.368703    0.577346     0.007504
AU2945   AU        0.360624    0.402384    0.615323     0.007504
AU2946   AU        0.398397    0.367776    0.614961     0.007504
AU2947   AU        0.396413    0.402147    0.577063     0.007504
AU2948   AU        0.434116    0.366965    0.578312     0.007504
AU2949   AU        0.433648    0.400627    0.612690     0.007504
AU2950   AU        0.470106    0.369092    0.613699     0.007504
AU2951   AU        0.467598    0.401690    0.576444     0.007504
AU2952   AU        0.504393    0.369835    0.578207     0.007504
AU2953   AU        0.505603    0.403631    0.612920     0.007504
AU2954   AU        0.538982    0.369149    0.611377     0.007504
AU2955   AU        0.542411    0.403706    0.576806     0.007504
AU2956   AU        0.576777    0.367226    0.576914     0.007504
AU2957   AU        0.577879    0.400806    0.610776     0.007504
AU2958   AU        0.614399    0.368478    0.613457     0.007504
AU2959   AU        0.612978    0.400185    0.577889     0.007504
AU2960   AU        0.649051    0.367275    0.577402     0.007504
AU2961   AU        0.648799    0.403390    0.612135     0.007504
AU2962   AU        0.682299    0.369887    0.611128     0.007504
AU2963   AU        0.685147    0.402249    0.577085     0.007504
PD2964   PD        0.719045    0.368088    0.578868     0.005394
AU2965   AU        0.721137    0.402384    0.614315     0.007504
PD2966   PD        0.755224    0.368360    0.611713     0.005394
PD2967   PD        0.756315    0.399961    0.578674     0.005394
PD2968   PD        0.789054    0.365568    0.577499     0.005394
PD2969   PD        0.789364    0.402927    0.612368     0.005394
PD2970   PD        0.826273    0.368561    0.609768     0.005394
PD2971   PD        0.823668    0.401817    0.576378     0.005394
PD2972   PD        0.043403    0.440106    0.613000     0.005394
PD2973   PD        0.044670    0.469782    0.577531     0.005394
AU2974   AU        0.077971    0.436852    0.577111     0.007504
PD2975   PD        0.077219    0.470323    0.611521     0.005394
AU2976   AU        0.110807    0.437105    0.611507     0.007504
AU2977   AU        0.109413    0.471980    0.575997     0.007504
AU2978   AU        0.143455    0.437805    0.575761     0.007504
AU2979   AU        0.147310    0.471893    0.613224     0.007504
AU2980   AU        0.179700    0.438013    0.613149     0.007504
AU2981   AU        0.182506    0.469894    0.576189     0.007504
AU2982   AU        0.217810    0.436944    0.576222     0.007504
AU2983   AU        0.216604    0.470229    0.611629     0.007504
AU2984   AU        0.250935    0.436361    0.613867     0.007504
AU2985   AU        0.251822    0.469418    0.577517     0.007504
AU2986   AU        0.288144    0.437306    0.578564     0.007504
AU2987   AU        0.285350    0.470434    0.613756     0.007504
AU2988   AU        0.323796    0.438024    0.613277     0.007504
AU2989   AU        0.323440    0.471186    0.578564     0.007504
AU2990   AU        0.360815    0.437431    0.576905     0.007504
AU2991   AU        0.360508    0.470791    0.614437     0.007504
AU2992   AU        0.396612    0.435594    0.611770     0.007504
AU2993   AU        0.396352    0.470687    0.577556     0.007504
AU2994   AU        0.432162    0.437907    0.576720     0.007504
AU2995   AU        0.434241    0.470033    0.612459     0.007504
AU2996   AU        0.466359    0.436487    0.612648     0.007504
AU2997   AU        0.469257    0.469376    0.578243     0.007504
AU2998   AU        0.503947    0.437183    0.577115     0.007504
AU2999   AU        0.504283    0.469657    0.612376     0.007504
AU3000   AU        0.540834    0.436265    0.613745     0.007504
AU3001   AU        0.540064    0.469906    0.575803     0.007504
AU3002   AU        0.577203    0.435696    0.577682     0.007504
AU3003   AU        0.577974    0.468678    0.612928     0.007504
AU3004   AU        0.615394    0.435137    0.609781     0.007504
AU3005   AU        0.613531    0.469476    0.576105     0.007504
AU3006   AU        0.650585    0.435099    0.575251     0.007504
AU3007   AU        0.650172    0.469563    0.610955     0.007504
AU3008   AU        0.683591    0.435252    0.612072     0.007504
AU3009   AU        0.682859    0.468549    0.578322     0.007504
AU3010   AU        0.719065    0.434893    0.577863     0.007504
PD3011   PD        0.718233    0.467450    0.610816     0.005394
AU3012   AU        0.753825    0.435537    0.610165     0.007504
AU3013   AU        0.754929    0.466925    0.576234     0.007504
AU3014   AU        0.789728    0.435495    0.575892     0.007504
PD3015   PD        0.785104    0.470449    0.614689     0.005394
PD3016   PD        0.823236    0.435820    0.612627     0.005394
PD3017   PD        0.829216    0.464648    0.571368     0.005394
PD3018   PD        0.044138    0.501099    0.614973     0.005394
PD3019   PD        0.038262    0.532328    0.576901     0.005394
AU3020   AU        0.075886    0.503616    0.576885     0.007504
PD3021   PD        0.075022    0.537072    0.610221     0.005394
PD3022   PD        0.110896    0.504799    0.610318     0.005394
PD3023   PD        0.111499    0.537090    0.575765     0.005394
AU3024   AU        0.145073    0.503802    0.574350     0.007504
PD3025   PD        0.146991    0.537488    0.610123     0.005394
PD3026   PD        0.180265    0.504092    0.612249     0.005394
AU3027   AU        0.180516    0.537804    0.574094     0.007504
AU3028   AU        0.218018    0.504371    0.577234     0.007504
AU3029   AU        0.216799    0.539592    0.609875     0.007504
AU3030   AU        0.251737    0.503327    0.612089     0.007504
AU3031   AU        0.252295    0.538696    0.576471     0.007504
AU3032   AU        0.286191    0.504849    0.577584     0.007504
AU3033   AU        0.289598    0.537590    0.612405     0.007504
AU3034   AU        0.324555    0.505425    0.612928     0.007504
AU3035   AU        0.323301    0.538607    0.575855     0.007504
AU3036   AU        0.360372    0.503955    0.576051     0.007504
AU3037   AU        0.358966    0.538562    0.613908     0.007504
AU3038   AU        0.396825    0.504317    0.612669     0.007504
AU3039   AU        0.397119    0.538669    0.577570     0.007504
AU3040   AU        0.431070    0.503072    0.577741     0.007504
AU3041   AU        0.433397    0.538839    0.614271     0.007504
AU3042   AU        0.468298    0.506495    0.613629     0.007504
AU3043   AU        0.468696    0.536685    0.577687     0.007504
AU3044   AU        0.503485    0.502024    0.577200     0.007504
AU3045   AU        0.505796    0.537520    0.610766     0.007504
AU3046   AU        0.538573    0.501951    0.610831     0.007504
AU3047   AU        0.541505    0.535879    0.574732     0.007504
AU3048   AU        0.575640    0.502560    0.577783     0.007504
AU3049   AU        0.574228    0.538265    0.609793     0.007504
AU3050   AU        0.615131    0.501377    0.610638     0.007504
AU3051   AU        0.613735    0.536391    0.579015     0.007504
AU3052   AU        0.649906    0.503109    0.575909     0.007504
AU3053   AU        0.649496    0.534362    0.614304     0.007504
AU3054   AU        0.685856    0.500926    0.611082     0.007504
PD3055   PD        0.686703    0.534342    0.578862     0.005394
AU3056   AU        0.722027    0.502174    0.577627     0.007504
PD3057   PD        0.718718    0.534183    0.612205     0.005394
PD3058   PD        0.754640    0.499050    0.612779     0.005394
AU3059   AU        0.755306    0.534633    0.574005     0.007504
PD3060   PD        0.790214    0.502194    0.576344     0.005394
PD3061   PD        0.786780    0.534895    0.613061     0.005394
PD3062   PD        0.828415    0.496625    0.606229     0.005394
PD3063   PD        0.823433    0.537061    0.577921     0.005394
PD3064   PD        0.034773    0.567719    0.612467     0.005394
PD3065   PD        0.000714    0.549680    0.642013     0.005394
PD3066   PD        0.115211    0.569236    0.614002     0.005394
PD3067   PD        0.110389    0.602496    0.576901     0.005394
AU3068   AU        0.146305    0.569560    0.574000     0.007504
AU3069   AU        0.148597    0.603213    0.611975     0.007504
PD3070   PD        0.180429    0.571744    0.611438     0.005394
AU3071   AU        0.182665    0.605623    0.575920     0.007504
AU3072   AU        0.216858    0.573037    0.577737     0.007504
AU3073   AU        0.216730    0.604703    0.613726     0.007504
AU3074   AU        0.252392    0.570983    0.612649     0.007504
AU3075   AU        0.252223    0.605411    0.576160     0.007504
AU3076   AU        0.289381    0.572012    0.577626     0.007504
AU3077   AU        0.287707    0.605307    0.611910     0.007504
AU3078   AU        0.324317    0.572344    0.610318     0.007504
AU3079   AU        0.323148    0.605451    0.575212     0.007504
AU3080   AU        0.360022    0.573686    0.577890     0.007504
AU3081   AU        0.360907    0.605094    0.612053     0.007504
AU3082   AU        0.397037    0.570831    0.613251     0.007504
AU3083   AU        0.396848    0.606100    0.577493     0.007504
AU3084   AU        0.433969    0.572608    0.576776     0.007504
AU3085   AU        0.433245    0.606329    0.612624     0.007504
AU3086   AU        0.468430    0.572385    0.614894     0.007504
AU3087   AU        0.469600    0.604486    0.576484     0.007504
AU3088   AU        0.504162    0.570766    0.579658     0.007504
AU3089   AU        0.503283    0.605704    0.614240     0.007504
AU3090   AU        0.540466    0.572722    0.614445     0.007504
AU3091   AU        0.537548    0.604621    0.576494     0.007504
PD3092   PD        0.576369    0.571593    0.576105     0.005394
AU3093   AU        0.577807    0.606887    0.611152     0.007504
PD3094   PD        0.611122    0.570163    0.611434     0.005394
PD3095   PD        0.610473    0.602674    0.575721     0.005394
PD3096   PD        0.648274    0.566975    0.577967     0.005394
PD3097   PD        0.646983    0.602852    0.611007     0.005394
PD3098   PD        0.683495    0.567633    0.610942     0.005394
PD3099   PD        0.683095    0.601368    0.577685     0.005394
AU3100   AU        0.721911    0.567016    0.578820     0.007504
PD3101   PD        0.717462    0.600860    0.613120     0.005394
PD3102   PD        0.755978    0.568780    0.613286     0.005394
PD3103   PD        0.754195    0.599435    0.578149     0.005394
PD3104   PD        0.790248    0.568609    0.577710     0.005394
PD3105   PD        0.823838    0.571498    0.615109     0.005394
PD3106   PD        0.079112    0.710580    0.572461     0.005394
PD3107   PD        0.114361    0.673427    0.573628     0.005394
AU3108   AU        0.149410    0.637866    0.576916     0.007504
PD3109   PD        0.150148    0.668801    0.611333     0.005394
PD3110   PD        0.183997    0.636779    0.613088     0.005394
AU3111   AU        0.182878    0.672906    0.578338     0.007504
PD3112   PD        0.215000    0.637939    0.575804     0.005394
AU3113   AU        0.218571    0.673275    0.610761     0.007504
AU3114   AU        0.251009    0.638102    0.609289     0.007504
AU3115   AU        0.253445    0.669545    0.575448     0.007504
AU3116   AU        0.288234    0.638850    0.575950     0.007504
AU3117   AU        0.288515    0.671028    0.613149     0.007504
PD3118   PD        0.322542    0.637049    0.611239     0.005394
PD3119   PD        0.323585    0.672579    0.578829     0.005394
AU3120   AU        0.362597    0.637273    0.576002     0.007504
PD3121   PD        0.360633    0.670808    0.610280     0.005394
AU3122   AU        0.397373    0.639168    0.612897     0.007504
AU3123   AU        0.397988    0.672648    0.575737     0.007504
AU3124   AU        0.433095    0.638278    0.576311     0.007504
AU3125   AU        0.433022    0.672167    0.609781     0.007504
PD3126   PD        0.468377    0.640106    0.612730     0.005394
AU3127   AU        0.470115    0.671363    0.576518     0.007504
AU3128   AU        0.505384    0.638770    0.577860     0.007504
AU3129   AU        0.506103    0.670896    0.610689     0.007504
PD3130   PD        0.539938    0.639629    0.611429     0.005394
AU3131   AU        0.540927    0.672364    0.574478     0.007504
AU3132   AU        0.574449    0.637839    0.575455     0.007504
AU3133   AU        0.575113    0.670701    0.612236     0.007504
PD3134   PD        0.612089    0.640589    0.610463     0.005394
AU3135   AU        0.610188    0.671524    0.575841     0.007504
PD3136   PD        0.649983    0.640468    0.576203     0.005394
AU3137   AU        0.645031    0.672969    0.610140     0.007504
PD3138   PD        0.680986    0.638400    0.614454     0.005394
PD3139   PD        0.681081    0.673812    0.576744     0.005394
PD3140   PD        0.715749    0.643292    0.579910     0.005394
PD3141   PD        0.715997    0.672991    0.614585     0.005394
PD3142   PD        0.751293    0.635971    0.611469     0.005394
PD3143   PD        0.773351    0.673679    0.566242     0.005394
PD3144   PD        0.146540    0.704294    0.577851     0.005394
PD3145   PD        0.184118    0.703798    0.611944     0.005394
PD3146   PD        0.184778    0.738054    0.576636     0.005394
AU3147   AU        0.220251    0.702518    0.575497     0.007504
AU3148   AU        0.218897    0.736183    0.612096     0.007504
AU3149   AU        0.253326    0.702746    0.611204     0.007504
PD3150   PD        0.255258    0.738240    0.577324     0.005394
PD3151   PD        0.288226    0.702466    0.579132     0.005394
PD3152   PD        0.291543    0.739187    0.612000     0.005394
PD3153   PD        0.324434    0.704319    0.611026     0.005394
PD3154   PD        0.326803    0.739055    0.576782     0.005394
AU3155   AU        0.361486    0.704267    0.576852     0.007504
AU3156   AU        0.362172    0.738838    0.610746     0.007504
AU3157   AU        0.396644    0.705642    0.610563     0.007504
AU3158   AU        0.397830    0.735717    0.575220     0.007504
AU3159   AU        0.434932    0.705419    0.577279     0.007504
PD3160   PD        0.431821    0.737088    0.613509     0.005394
AU3161   AU        0.469941    0.703663    0.612846     0.007504
AU3162   AU        0.469536    0.738266    0.578404     0.007504
AU3163   AU        0.504411    0.705460    0.576838     0.007504
AU3164   AU        0.503483    0.736174    0.613446     0.007504
AU3165   AU        0.542012    0.703453    0.609672     0.007504
AU3166   AU        0.540162    0.737518    0.577604     0.007504
AU3167   AU        0.577040    0.704761    0.575636     0.007504
PD3168   PD        0.574992    0.738459    0.611961     0.005394
AU3169   AU        0.610881    0.703295    0.610362     0.007504
PD3170   PD        0.611674    0.738770    0.577559     0.005394
AU3171   AU        0.644536    0.704947    0.575556     0.007504
PD3172   PD        0.643419    0.736377    0.611584     0.005394
PD3173   PD        0.683392    0.705227    0.613784     0.005394
PD3174   PD        0.679429    0.736746    0.575711     0.005394
PD3175   PD        0.717474    0.706568    0.578551     0.005394
PD3176   PD        0.196012    0.790101    0.617368     0.005394
PD3177   PD        0.290953    0.771830    0.574260     0.005394
PD3178   PD        0.326916    0.773081    0.610045     0.005394
PD3179   PD        0.323732    0.804372    0.578327     0.005394
AU3180   AU        0.362774    0.771816    0.576260     0.007504
PD3181   PD        0.361622    0.803309    0.610619     0.005394
AU3182   AU        0.396681    0.769642    0.610976     0.007504
PD3183   PD        0.399060    0.802598    0.576563     0.005394
AU3184   AU        0.433183    0.768871    0.574803     0.007504
PD3185   PD        0.435770    0.801804    0.612770     0.005394
PD3186   PD        0.470980    0.768750    0.613557     0.005394
PD3187   PD        0.468668    0.799843    0.576312     0.005394
AU3188   AU        0.507919    0.770253    0.575372     0.007504
PD3189   PD        0.500280    0.802730    0.612138     0.005394
PD3190   PD        0.538315    0.770385    0.611782     0.005394
PD3191   PD        0.543017    0.803739    0.576450     0.005394
PD3192   PD        0.573337    0.768157    0.573932     0.005394
PD3193   PD        0.613022    0.767771    0.616994     0.005394
PD3194   PD        0.256020    0.136112    0.648834     0.005394
PD3195   PD        0.244717    0.135951    0.721488     0.005394
PD3196   PD        0.324750    0.137444    0.649058     0.005394
PD3197   PD        0.301034    0.085001    0.672146     0.005394
PD3198   PD        0.361833    0.137337    0.685499     0.005394
PD3199   PD        0.427736    0.070121    0.681381     0.005394
PD3200   PD        0.395612    0.132505    0.649889     0.005394
PD3201   PD        0.434059    0.105397    0.647166     0.005394
PD3202   PD        0.433288    0.135969    0.685709     0.005394
PD3203   PD        0.467969    0.100572    0.683355     0.005394
PD3204   PD        0.468206    0.137619    0.647924     0.005394
PD3205   PD        0.500829    0.103025    0.649556     0.005394
PD3206   PD        0.503337    0.138004    0.684134     0.005394
PD3207   PD        0.539037    0.136257    0.646150     0.005394
PD3208   PD        0.577858    0.138952    0.687539     0.005394
PD3209   PD        0.611708    0.136319    0.649888     0.005394
AU3210   AU        0.182097    0.203269    0.647828     0.007504
PD3211   PD        0.218009    0.171800    0.646465     0.005394
PD3212   PD        0.218927    0.205012    0.682855     0.005394
PD3213   PD        0.252023    0.170387    0.681637     0.005394
AU3214   AU        0.254266    0.202616    0.647043     0.007504
PD3215   PD        0.288672    0.170819    0.646830     0.005394
PD3216   PD        0.286725    0.201920    0.683818     0.005394
PD3217   PD        0.322679    0.169094    0.683297     0.005394
AU3218   AU        0.324085    0.203242    0.650149     0.007504
PD3219   PD        0.360000    0.169917    0.650254     0.005394
AU3220   AU        0.362280    0.201295    0.684491     0.007504
AU3221   AU        0.396169    0.170605    0.685949     0.007504
AU3222   AU        0.396497    0.201095    0.648567     0.007504
PD3223   PD        0.433361    0.169079    0.651822     0.005394
AU3224   AU        0.431722    0.202161    0.684684     0.007504
PD3225   PD        0.466423    0.171803    0.683477     0.005394
AU3226   AU        0.470172    0.201608    0.647990     0.007504
PD3227   PD        0.503140    0.168763    0.649011     0.005394
PD3228   PD        0.502337    0.202704    0.683444     0.005394
PD3229   PD        0.536708    0.168993    0.685898     0.005394
PD3230   PD        0.542578    0.202248    0.648603     0.005394
PD3231   PD        0.577231    0.169698    0.648532     0.005394
PD3232   PD        0.577066    0.201620    0.686646     0.005394
PD3233   PD        0.610494    0.171571    0.683435     0.005394
PD3234   PD        0.610464    0.202485    0.649411     0.005394
PD3235   PD        0.644987    0.168046    0.644006     0.005394
PD3236   PD        0.647046    0.199845    0.682626     0.005394
PD3237   PD        0.681163    0.201780    0.645902     0.005394
PD3238   PD        0.112500    0.270393    0.650967     0.005394
PD3239   PD        0.148616    0.236059    0.647952     0.005394
PD3240   PD        0.148411    0.269461    0.677962     0.005394
PD3241   PD        0.185251    0.237494    0.681213     0.005394
PD3242   PD        0.180289    0.267613    0.648697     0.005394
PD3243   PD        0.216919    0.234495    0.646994     0.005394
PD3244   PD        0.218755    0.268025    0.682286     0.005394
AU3245   AU        0.254884    0.236455    0.682038     0.007504
AU3246   AU        0.253534    0.270865    0.650053     0.007504
AU3247   AU        0.289322    0.236348    0.649086     0.007504
AU3248   AU        0.288510    0.269676    0.685399     0.007504
AU3249   AU        0.324800    0.235711    0.683266     0.007504
AU3250   AU        0.325601    0.267788    0.648437     0.007504
AU3251   AU        0.360706    0.232415    0.648416     0.007504
PD3252   PD        0.361214    0.267281    0.683532     0.005394
AU3253   AU        0.395828    0.234696    0.685718     0.007504
AU3254   AU        0.398191    0.267343    0.649303     0.007504
AU3255   AU        0.432970    0.233886    0.649603     0.007504
AU3256   AU        0.432126    0.267901    0.684637     0.007504
PD3257   PD        0.465143    0.234533    0.685189     0.005394
AU3258   AU        0.468277    0.266940    0.648652     0.007504
PD3259   PD        0.504045    0.233093    0.648007     0.005394
PD3260   PD        0.501868    0.267907    0.683908     0.005394
PD3261   PD        0.539208    0.232399    0.683704     0.005394
AU3262   AU        0.539866    0.268488    0.648998     0.007504
PD3263   PD        0.576371    0.233284    0.647698     0.005394
PD3264   PD        0.576639    0.266294    0.683316     0.005394
AU3265   AU        0.613626    0.234830    0.683759     0.007504
PD3266   PD        0.616050    0.268873    0.650529     0.005394
PD3267   PD        0.649540    0.234230    0.647681     0.005394
PD3268   PD        0.649579    0.268316    0.684699     0.005394
PD3269   PD        0.682861    0.236761    0.681532     0.005394
PD3270   PD        0.682257    0.266940    0.647018     0.005394
PD3271   PD        0.718313    0.236597    0.645932     0.005394
PD3272   PD        0.723305    0.268867    0.684945     0.005394
PD3273   PD        0.752590    0.270755    0.646545     0.005394
PD3274   PD        0.110796    0.301842    0.683807     0.005394
AU3275   AU        0.112772    0.336495    0.648029     0.007504
AU3276   AU        0.145226    0.304940    0.645493     0.007504
PD3277   PD        0.145639    0.336334    0.681817     0.005394
PD3278   PD        0.184827    0.303837    0.684272     0.005394
PD3279   PD        0.180527    0.338057    0.645622     0.005394
AU3280   AU        0.218081    0.302662    0.649139     0.007504
AU3281   AU        0.216762    0.336403    0.681401     0.007504
AU3282   AU        0.252368    0.303969    0.683866     0.007504
AU3283   AU        0.252473    0.336419    0.647475     0.007504
AU3284   AU        0.290088    0.301737    0.648630     0.007504
AU3285   AU        0.287972    0.335156    0.683792     0.007504
AU3286   AU        0.325147    0.301046    0.681379     0.007504
PD3287   PD        0.323920    0.335451    0.647663     0.005394
AU3288   AU        0.360552    0.298276    0.648459     0.007504
PD3289   PD        0.358220    0.333503    0.687282     0.005394
AU3290   AU        0.397551    0.300719    0.685884     0.007504
PD3291   PD        0.394397    0.333746    0.649823     0.005394
PD3292   PD        0.433713    0.298600    0.648842     0.005394
AU3293   AU        0.432951    0.335504    0.682340     0.007504
AU3294   AU        0.468720    0.303805    0.685271     0.007504
AU3295   AU        0.470677    0.336616    0.648671     0.007504
AU3296   AU        0.503321    0.302110    0.650598     0.007504
AU3297   AU        0.506388    0.336710    0.683312     0.007504
AU3298   AU        0.541619    0.300416    0.685133     0.007504
AU3299   AU        0.542012    0.335037    0.648412     0.007504
AU3300   AU        0.577174    0.302232    0.651797     0.007504
PD3301   PD        0.576939    0.334326    0.684688     0.005394
PD3302   PD        0.615523    0.300701    0.682186     0.005394
PD3303   PD        0.614050    0.335883    0.645757     0.005394
AU3304   AU        0.649536    0.299129    0.646837     0.007504
PD3305   PD        0.649782    0.333466    0.685256     0.005394
PD3306   PD        0.684787    0.300601    0.683823     0.005394
AU3307   AU        0.682798    0.335079    0.648102     0.007504
AU3308   AU        0.719304    0.304136    0.648863     0.007504
PD3309   PD        0.718467    0.335084    0.681944     0.005394
PD3310   PD        0.754597    0.298634    0.681359     0.005394
PD3311   PD        0.755024    0.336772    0.647961     0.005394
PD3312   PD        0.076175    0.369733    0.648050     0.005394
PD3313   PD        0.075823    0.402208    0.682557     0.005394
PD3314   PD        0.111823    0.369195    0.680008     0.005394
PD3315   PD        0.112659    0.405584    0.649073     0.005394
AU3316   AU        0.146716    0.371880    0.650070     0.007504
AU3317   AU        0.148958    0.403080    0.684744     0.007504
AU3318   AU        0.183212    0.368226    0.682374     0.007504
AU3319   AU        0.180553    0.404806    0.646969     0.007504
AU3320   AU        0.217499    0.371353    0.646177     0.007504
AU3321   AU        0.217373    0.403018    0.681997     0.007504
AU3322   AU        0.252276    0.369100    0.683100     0.007504
AU3323   AU        0.253672    0.402805    0.648286     0.007504
AU3324   AU        0.288132    0.369926    0.650165     0.007504
PD3325   PD        0.289304    0.403940    0.683214     0.005394
AU3326   AU        0.326152    0.369934    0.682477     0.007504
AU3327   AU        0.323535    0.404160    0.649768     0.007504
AU3328   AU        0.361525    0.369522    0.647784     0.007504
AU3329   AU        0.361358    0.404339    0.682042     0.007504
AU3330   AU        0.396659    0.368798    0.684394     0.007504
AU3331   AU        0.396549    0.401142    0.647906     0.007504
AU3332   AU        0.433008    0.368283    0.650181     0.007504
AU3333   AU        0.431350    0.402354    0.684026     0.007504
AU3334   AU        0.467406    0.367932    0.683304     0.007504
AU3335   AU        0.469844    0.401327    0.647989     0.007504
AU3336   AU        0.505434    0.368131    0.648874     0.007504
PD3337   PD        0.503757    0.404178    0.683115     0.005394
AU3338   AU        0.541980    0.369371    0.682452     0.007504
AU3339   AU        0.543598    0.402694    0.645978     0.007504
AU3340   AU        0.575561    0.370237    0.646177     0.007504
AU3341   AU        0.577778    0.402374    0.681218     0.007504
PD3342   PD        0.612419    0.370598    0.684158     0.005394
AU3343   AU        0.613193    0.404161    0.647229     0.007504
AU3344   AU        0.648175    0.369222    0.647254     0.007504
AU3345   AU        0.648176    0.403188    0.681185     0.007504
PD3346   PD        0.683853    0.367079    0.681192     0.005394
AU3347   AU        0.683371    0.402833    0.646999     0.007504
AU3348   AU        0.720035    0.369337    0.645918     0.007504
AU3349   AU        0.719227    0.402326    0.683652     0.007504
AU3350   AU        0.751993    0.368646    0.684263     0.007504
PD3351   PD        0.756638    0.403543    0.648507     0.005394
PD3352   PD        0.787816    0.367548    0.647122     0.005394
PD3353   PD        0.786982    0.402140    0.681723     0.005394
PD3354   PD        0.078760    0.437990    0.649351     0.005394
PD3355   PD        0.075913    0.473338    0.684628     0.005394
PD3356   PD        0.115112    0.437589    0.683988     0.005394
AU3357   AU        0.113011    0.472483    0.646905     0.007504
PD3358   PD        0.147957    0.437026    0.649779     0.005394
PD3359   PD        0.147048    0.469813    0.684468     0.005394
PD3360   PD        0.185399    0.437947    0.683348     0.005394
PD3361   PD        0.183237    0.470022    0.647289     0.005394
AU3362   AU        0.218232    0.440347    0.649062     0.007504
AU3363   AU        0.219001    0.473806    0.684858     0.007504
AU3364   AU        0.252997    0.435322    0.683028     0.007504
AU3365   AU        0.252993    0.471027    0.650005     0.007504
AU3366   AU        0.287995    0.437276    0.646999     0.007504
AU3367   AU        0.288933    0.470193    0.683247     0.007504
AU3368   AU        0.324066    0.438843    0.681647     0.007504
AU3369   AU        0.323272    0.472976    0.647716     0.007504
AU3370   AU        0.361520    0.439237    0.648882     0.007504
AU3371   AU        0.360856    0.470705    0.683120     0.007504
AU3372   AU        0.395692    0.438448    0.684194     0.007504
AU3373   AU        0.396720    0.471711    0.648915     0.007504
AU3374   AU        0.431541    0.436352    0.647784     0.007504
AU3375   AU        0.430355    0.471869    0.684642     0.007504
AU3376   AU        0.468392    0.436027    0.683351     0.007504
AU3377   AU        0.469788    0.470704    0.651622     0.007504
PD3378   PD        0.506927    0.435234    0.648164     0.005394
AU3379   AU        0.505138    0.469321    0.684395     0.007504
AU3380   AU        0.543415    0.434151    0.683329     0.007504
AU3381   AU        0.540911    0.469042    0.648746     0.007504
AU3382   AU        0.577949    0.433712    0.647090     0.007504
PD3383   PD        0.577992    0.467491    0.681308     0.005394
AU3384   AU        0.612958    0.434554    0.685484     0.007504
AU3385   AU        0.615281    0.468028    0.646949     0.007504
AU3386   AU        0.649078    0.435182    0.648429     0.007504
AU3387   AU        0.650154    0.469184    0.684231     0.007504
PD3388   PD        0.682616    0.435715    0.681980     0.005394
AU3389   AU        0.681939    0.469066    0.646562     0.007504
AU3390   AU        0.718984    0.435441    0.647203     0.007504
PD3391   PD        0.717348    0.466479    0.682860     0.005394
PD3392   PD        0.753822    0.435541    0.683079     0.005394
PD3393   PD        0.751149    0.467703    0.648810     0.005394
PD3394   PD        0.787330    0.437195    0.647789     0.005394
PD3395   PD        0.790386    0.470706    0.682353     0.005394
PD3396   PD        0.072791    0.506306    0.645641     0.005394
PD3397   PD        0.112535    0.499567    0.686978     0.005394
PD3398   PD        0.114208    0.537356    0.646157     0.005394
PD3399   PD        0.145669    0.505304    0.646496     0.005394
PD3400   PD        0.148022    0.538811    0.682400     0.005394
AU3401   AU        0.180470    0.506102    0.681966     0.007504
PD3402   PD        0.183088    0.538455    0.648641     0.005394
PD3403   PD        0.216783    0.505921    0.647814     0.005394
PD3404   PD        0.219465    0.536156    0.681854     0.005394
AU3405   AU        0.253002    0.505138    0.681508     0.007504
AU3406   AU        0.254018    0.537703    0.648070     0.007504
AU3407   AU        0.287681    0.505723    0.647158     0.007504
AU3408   AU        0.290499    0.538513    0.684249     0.007504
AU3409   AU        0.324090    0.505681    0.684280     0.007504
AU3410   AU        0.323781    0.536896    0.648485     0.007504
AU3411   AU        0.361904    0.505773    0.648449     0.007504
AU3412   AU        0.359334    0.539062    0.683866     0.007504
AU3413   AU        0.396263    0.503220    0.682576     0.007504
AU3414   AU        0.395879    0.538206    0.650309     0.007504
AU3415   AU        0.431970    0.503370    0.649279     0.007504
AU3416   AU        0.433560    0.536061    0.684027     0.007504
AU3417   AU        0.468769    0.504582    0.683528     0.007504
AU3418   AU        0.470166    0.538680    0.648463     0.007504
AU3419   AU        0.504579    0.504688    0.646540     0.007504
AU3420   AU        0.505387    0.537884    0.682300     0.007504
PD3421   PD        0.539667    0.503418    0.684198     0.005394
AU3422   AU        0.538698    0.537601    0.646319     0.007504
PD3423   PD        0.576841    0.502174    0.645904     0.005394
PD3424   PD        0.574587    0.539190    0.682595     0.005394
AU3425   AU        0.611571    0.501699    0.680768     0.007504
PD3426   PD        0.609361    0.534379    0.646713     0.005394
AU3427   AU        0.651091    0.502893    0.648046     0.007504
PD3428   PD        0.647020    0.535318    0.682865     0.005394
AU3429   AU        0.683739    0.500959    0.683535     0.007504
AU3430   AU        0.684326    0.535053    0.647102     0.007504
AU3431   AU        0.717862    0.499113    0.646974     0.007504
PD3432   PD        0.720285    0.532868    0.679228     0.005394
PD3433   PD        0.754371    0.500287    0.685291     0.005394
PD3434   PD        0.750558    0.532979    0.650098     0.005394
PD3435   PD        0.826881    0.541532    0.650969     0.005394
PD3436   PD        0.108176    0.574543    0.683837     0.005394
PD3437   PD        0.113378    0.603492    0.648790     0.005394
PD3438   PD        0.149511    0.573196    0.648597     0.005394
AU3439   AU        0.147300    0.601698    0.686135     0.007504
PD3440   PD        0.184082    0.573421    0.683395     0.005394
AU3441   AU        0.182860    0.607325    0.649948     0.007504
PD3442   PD        0.218394    0.572969    0.646973     0.005394
AU3443   AU        0.218940    0.603775    0.682528     0.007504
AU3444   AU        0.254383    0.571631    0.683838     0.007504
AU3445   AU        0.252944    0.605575    0.648851     0.007504
AU3446   AU        0.288576    0.572533    0.648547     0.007504
AU3447   AU        0.290364    0.604072    0.684932     0.007504
AU3448   AU        0.324099    0.571581    0.682116     0.007504
AU3449   AU        0.323127    0.602790    0.648787     0.007504
AU3450   AU        0.359634    0.569922    0.649038     0.007504
PD3451   PD        0.357812    0.603852    0.686518     0.005394
AU3452   AU        0.395578    0.572038    0.683319     0.007504
PD3453   PD        0.395585    0.604040    0.648688     0.005394
AU3454   AU        0.432292    0.570023    0.649700     0.007504
AU3455   AU        0.432314    0.605672    0.682930     0.007504
AU3456   AU        0.468703    0.569859    0.685220     0.007504
AU3457   AU        0.466796    0.605438    0.648201     0.007504
AU3458   AU        0.505182    0.573017    0.649964     0.007504
AU3459   AU        0.503923    0.606485    0.682921     0.007504
AU3460   AU        0.539084    0.571304    0.682828     0.007504
AU3461   AU        0.541901    0.606372    0.647805     0.007504
PD3462   PD        0.576788    0.572135    0.650796     0.005394
PD3463   PD        0.574498    0.604729    0.684175     0.005394
PD3464   PD        0.613291    0.569889    0.687214     0.005394
PD3465   PD        0.608667    0.604299    0.646996     0.005394
PD3466   PD        0.646932    0.568737    0.648132     0.005394
PD3467   PD        0.645713    0.606576    0.683962     0.005394
PD3468   PD        0.681159    0.566877    0.683588     0.005394
PD3469   PD        0.682521    0.636903    0.680471     0.005394
PD3470   PD        0.723303    0.568614    0.648420     0.005394
PD3471   PD        0.718476    0.600292    0.682051     0.005394
PD3472   PD        0.759196    0.572739    0.681087     0.005394
PD3473   PD        0.750346    0.605140    0.644772     0.005394
PD3474   PD        0.144849    0.637336    0.649931     0.005394
PD3475   PD        0.184513    0.636701    0.682535     0.005394
PD3476   PD        0.184709    0.673225    0.646947     0.005394
AU3477   AU        0.219117    0.638508    0.647348     0.007504
PD3478   PD        0.217881    0.671890    0.681538     0.005394
AU3479   AU        0.254225    0.639787    0.683344     0.007504
AU3480   AU        0.254334    0.671216    0.648157     0.007504
AU3481   AU        0.286819    0.638957    0.645606     0.007504
AU3482   AU        0.290522    0.669244    0.680794     0.007504
AU3483   AU        0.324109    0.638029    0.681462     0.007504
AU3484   AU        0.323568    0.671045    0.646042     0.007504
PD3485   PD        0.360488    0.635398    0.646738     0.005394
PD3486   PD        0.359261    0.671337    0.681112     0.005394
AU3487   AU        0.397333    0.638035    0.683575     0.007504
PD3488   PD        0.394084    0.671769    0.648073     0.005394
AU3489   AU        0.433946    0.639150    0.649346     0.007504
PD3490   PD        0.431307    0.672794    0.683386     0.005394
AU3491   AU        0.470269    0.636885    0.683339     0.007504
AU3492   AU        0.469549    0.671292    0.646686     0.007504
AU3493   AU        0.505150    0.638215    0.648048     0.007504
PD3494   PD        0.507909    0.670956    0.683409     0.005394
AU3495   AU        0.539640    0.637437    0.684239     0.007504
AU3496   AU        0.539179    0.670327    0.648912     0.007504
PD3497   PD        0.575088    0.640625    0.646002     0.005394
AU3498   AU        0.573800    0.671454    0.684987     0.007504
PD3499   PD        0.611481    0.637273    0.680896     0.005394
PD3500   PD        0.611799    0.672796    0.648294     0.005394
PD3501   PD        0.644806    0.639140    0.647657     0.005394
PD3502   PD        0.646515    0.670099    0.684861     0.005394
PD3503   PD        0.717467    0.635190    0.714044     0.005394
PD3504   PD        0.680863    0.672271    0.646520     0.005394
PD3505   PD        0.715214    0.636731    0.647731     0.005394
PD3506   PD        0.220406    0.705904    0.646301     0.005394
PD3507   PD        0.254967    0.700698    0.684342     0.005394
PD3508   PD        0.252334    0.738488    0.646144     0.005394
AU3509   AU        0.288630    0.706289    0.646127     0.007504
PD3510   PD        0.289948    0.734658    0.683508     0.005394
PD3511   PD        0.322599    0.702598    0.681889     0.005394
PD3512   PD        0.323510    0.737894    0.645062     0.005394
AU3513   AU        0.361098    0.703927    0.643912     0.007504
PD3514   PD        0.360191    0.738142    0.680047     0.005394
PD3515   PD        0.393334    0.706473    0.683186     0.005394
AU3516   AU        0.394421    0.738086    0.645789     0.007504
PD3517   PD        0.433713    0.704010    0.643496     0.005394
PD3518   PD        0.431032    0.734988    0.679611     0.005394
PD3519   PD        0.467391    0.703094    0.680644     0.005394
PD3520   PD        0.469046    0.732813    0.650905     0.005394
AU3521   AU        0.504788    0.703808    0.645935     0.007504
PD3522   PD        0.503616    0.734667    0.683175     0.005394
PD3523   PD        0.539843    0.703188    0.683205     0.005394
PD3524   PD        0.539982    0.739544    0.647862     0.005394
PD3525   PD        0.574644    0.703473    0.647589     0.005394
PD3526   PD        0.576519    0.736439    0.683413     0.005394
PD3527   PD        0.609697    0.702587    0.683071     0.005394
PD3528   PD        0.650481    0.771264    0.652651     0.005394
PD3529   PD        0.641885    0.700972    0.648080     0.005394
PD3530   PD        0.358752    0.770055    0.644912     0.005394
AU3531   AU        0.395607    0.771581    0.677630     0.007504
PD3532   PD        0.430553    0.769947    0.645215     0.005394
PD3533   PD        0.367650    0.807698    0.749278     0.005394
PD3534   PD        0.504351    0.772713    0.646798     0.005394
PD3535   PD        0.395678    0.138722    0.723012     0.005394
PD3536   PD        0.467296    0.138772    0.719115     0.005394
PD3537   PD        0.254052    0.202017    0.721552     0.005394
PD3538   PD        0.288728    0.172025    0.720425     0.005394
PD3539   PD        0.327464    0.165960    0.757386     0.005394
AU3540   AU        0.327286    0.205080    0.718518     0.007504
PD3541   PD        0.359329    0.171476    0.722126     0.005394
PD3542   PD        0.362703    0.203449    0.757819     0.005394
PD3543   PD        0.396334    0.168442    0.756578     0.005394
PD3544   PD        0.396085    0.203128    0.720606     0.005394
PD3545   PD        0.431048    0.170362    0.723330     0.005394
AU3546   AU        0.431541    0.203588    0.755278     0.007504
PD3547   PD        0.467446    0.170016    0.753931     0.005394
AU3548   AU        0.467363    0.203941    0.720207     0.007504
PD3549   PD        0.502586    0.172350    0.720727     0.005394
PD3550   PD        0.501601    0.202941    0.755816     0.005394
PD3551   PD        0.538533    0.200704    0.718390     0.005394
PD3552   PD        0.576637    0.172384    0.723140     0.005394
PD3553   PD        0.577715    0.207307    0.753256     0.005394
PD3554   PD        0.615738    0.201358    0.719419     0.005394
PD3555   PD        0.183717    0.271267    0.716229     0.005394
PD3556   PD        0.174631    0.179601    0.738448     0.005394
PD3557   PD        0.217504    0.268140    0.750468     0.005394
PD3558   PD        0.174675    0.237645    0.749245     0.005394
PD3559   PD        0.253017    0.271182    0.716992     0.005394
PD3560   PD        0.288277    0.235370    0.715920     0.005394
PD3561   PD        0.293713    0.167809    0.790455     0.005394
PD3562   PD        0.329626    0.238649    0.751983     0.005394
PD3563   PD        0.325559    0.269347    0.716919     0.005394
PD3564   PD        0.362512    0.235196    0.721239     0.005394
AU3565   AU        0.363809    0.268968    0.757063     0.007504
AU3566   AU        0.396612    0.235027    0.755284     0.007504
AU3567   AU        0.397032    0.268315    0.720157     0.007504
AU3568   AU        0.431815    0.234870    0.719531     0.007504
AU3569   AU        0.431210    0.269507    0.755832     0.007504
AU3570   AU        0.466742    0.236885    0.756690     0.007504
PD3571   PD        0.466854    0.266175    0.719724     0.005394
AU3572   AU        0.501719    0.234010    0.720562     0.007504
PD3573   PD        0.502717    0.268244    0.754561     0.005394
PD3574   PD        0.535915    0.236104    0.756410     0.005394
AU3575   AU        0.538978    0.267759    0.721702     0.007504
PD3576   PD        0.576858    0.236019    0.715690     0.005394
PD3577   PD        0.577450    0.268477    0.754441     0.005394
PD3578   PD        0.612713    0.236801    0.753811     0.005394
PD3579   PD        0.613824    0.266419    0.718463     0.005394
PD3580   PD        0.650648    0.235244    0.715855     0.005394
PD3581   PD        0.648891    0.270010    0.757337     0.005394
PD3582   PD        0.685136    0.269561    0.718925     0.005394
PD3583   PD        0.151127    0.301302    0.719215     0.005394
PD3584   PD        0.182761    0.303341    0.751550     0.005394
PD3585   PD        0.181053    0.339657    0.719630     0.005394
AU3586   AU        0.217453    0.303195    0.717700     0.007504
PD3587   PD        0.217509    0.338321    0.749215     0.005394
PD3588   PD        0.252262    0.305480    0.752292     0.005394
PD3589   PD        0.252790    0.335710    0.715358     0.005394
PD3590   PD        0.289429    0.302756    0.720096     0.005394
PD3591   PD        0.286253    0.336808    0.750642     0.005394
PD3592   PD        0.329891    0.301235    0.759523     0.005394
PD3593   PD        0.324447    0.332723    0.718328     0.005394
PD3594   PD        0.363118    0.303746    0.721313     0.005394
PD3595   PD        0.361582    0.336735    0.753513     0.005394
PD3596   PD        0.398992    0.302920    0.755413     0.005394
PD3597   PD        0.399267    0.336818    0.717778     0.005394
AU3598   AU        0.433715    0.303113    0.718319     0.007504
AU3599   AU        0.435843    0.337660    0.754835     0.007504
AU3600   AU        0.467412    0.303341    0.753991     0.007504
AU3601   AU        0.470768    0.337029    0.717604     0.007504
PD3602   PD        0.503715    0.302761    0.721624     0.005394
PD3603   PD        0.505436    0.337197    0.752758     0.005394
PD3604   PD        0.538608    0.301667    0.756269     0.005394
PD3605   PD        0.540932    0.335462    0.718621     0.005394
PD3606   PD        0.575838    0.299365    0.722460     0.005394
PD3607   PD        0.575826    0.335528    0.754675     0.005394
PD3608   PD        0.610316    0.299746    0.754814     0.005394
PD3609   PD        0.613161    0.335832    0.716926     0.005394
PD3610   PD        0.646772    0.301745    0.720354     0.005394
PD3611   PD        0.646366    0.338132    0.750863     0.005394
PD3612   PD        0.682908    0.301493    0.752566     0.005394
PD3613   PD        0.683075    0.336470    0.718271     0.005394
PD3614   PD        0.718816    0.303005    0.718427     0.005394
PD3615   PD        0.109950    0.401664    0.715005     0.005394
PD3616   PD        0.148882    0.372011    0.718041     0.005394
PD3617   PD        0.145536    0.403830    0.749977     0.005394
PD3618   PD        0.182874    0.372916    0.754856     0.005394
PD3619   PD        0.183088    0.404755    0.716813     0.005394
AU3620   AU        0.218090    0.368694    0.721251     0.007504
PD3621   PD        0.218301    0.404609    0.755106     0.005394
PD3622   PD        0.253492    0.369935    0.753237     0.005394
PD3623   PD        0.254333    0.402487    0.720144     0.005394
PD3624   PD        0.288570    0.369624    0.717404     0.005394
PD3625   PD        0.290230    0.400849    0.753599     0.005394
PD3626   PD        0.321880    0.370072    0.751596     0.005394
AU3627   AU        0.325927    0.404324    0.716234     0.007504
PD3628   PD        0.362158    0.367377    0.718398     0.005394
PD3629   PD        0.360817    0.404214    0.754492     0.005394
AU3630   AU        0.397468    0.368909    0.754850     0.007504
AU3631   AU        0.395285    0.403657    0.717718     0.007504
AU3632   AU        0.432572    0.367295    0.719539     0.007504
AU3633   AU        0.432828    0.402851    0.752815     0.007504
AU3634   AU        0.470161    0.370293    0.754932     0.007504
AU3635   AU        0.468798    0.401008    0.718379     0.007504
AU3636   AU        0.503731    0.369487    0.718212     0.007504
PD3637   PD        0.505953    0.402985    0.755082     0.005394
PD3638   PD        0.537242    0.369265    0.754415     0.005394
AU3639   AU        0.541305    0.401649    0.720671     0.007504
PD3640   PD        0.577952    0.368082    0.718754     0.005394
PD3641   PD        0.576464    0.401737    0.757005     0.005394
PD3642   PD        0.611302    0.367557    0.756413     0.005394
PD3643   PD        0.611060    0.400047    0.719216     0.005394
PD3644   PD        0.647820    0.370490    0.718985     0.005394
PD3645   PD        0.646207    0.402880    0.752868     0.005394
PD3646   PD        0.683784    0.369988    0.753033     0.005394
PD3647   PD        0.682670    0.403641    0.718572     0.005394
PD3648   PD        0.719972    0.368419    0.718211     0.005394
PD3649   PD        0.718544    0.402390    0.753022     0.005394
PD3650   PD        0.752755    0.403483    0.717177     0.005394
PD3651   PD        0.115741    0.469843    0.727715     0.005394
PD3652   PD        0.149054    0.435521    0.718380     0.005394
PD3653   PD        0.150618    0.471238    0.753341     0.005394
PD3654   PD        0.183881    0.434469    0.753211     0.005394
PD3655   PD        0.185535    0.470317    0.720042     0.005394
PD3656   PD        0.218064    0.437647    0.722443     0.005394
PD3657   PD        0.218544    0.468680    0.755426     0.005394
PD3658   PD        0.252420    0.436408    0.753003     0.005394
AU3659   AU        0.251735    0.471845    0.718900     0.007504
PD3660   PD        0.288943    0.439435    0.718029     0.005394
PD3661   PD        0.287483    0.467345    0.752167     0.005394
PD3662   PD        0.323108    0.437662    0.757487     0.005394
AU3663   AU        0.325216    0.470359    0.719397     0.007504
AU3664   AU        0.359340    0.437968    0.715807     0.007504
AU3665   AU        0.360393    0.470336    0.753556     0.007504
PD3666   PD        0.397852    0.435737    0.754451     0.005394
AU3667   AU        0.395855    0.470559    0.719168     0.007504
AU3668   AU        0.432178    0.435332    0.719905     0.007504
PD3669   PD        0.432844    0.470285    0.752419     0.005394
AU3670   AU        0.466420    0.436830    0.754374     0.007504
AU3671   AU        0.466891    0.471209    0.718152     0.007504
PD3672   PD        0.506323    0.434633    0.718457     0.005394
PD3673   PD        0.505370    0.465125    0.752772     0.005394
PD3674   PD        0.542339    0.435167    0.754414     0.005394
AU3675   AU        0.539862    0.470582    0.718213     0.007504
AU3676   AU        0.576928    0.434037    0.718358     0.007504
PD3677   PD        0.575579    0.470856    0.752450     0.005394
AU3678   AU        0.612198    0.437294    0.752845     0.007504
AU3679   AU        0.611891    0.469405    0.717675     0.007504
PD3680   PD        0.647099    0.437074    0.720890     0.005394
PD3681   PD        0.647157    0.468434    0.751714     0.005394
PD3682   PD        0.682480    0.436027    0.751636     0.005394
AU3683   AU        0.684910    0.467636    0.718598     0.007504
AU3684   AU        0.720318    0.435785    0.720505     0.007504
PD3685   PD        0.720805    0.469967    0.752732     0.005394
PD3686   PD        0.752944    0.470494    0.717685     0.005394
PD3687   PD        0.141938    0.508224    0.717186     0.005394
PD3688   PD        0.182097    0.506219    0.755239     0.005394
PD3689   PD        0.183238    0.538496    0.717807     0.005394
PD3690   PD        0.217814    0.506557    0.719381     0.005394
PD3691   PD        0.217038    0.541026    0.753135     0.005394
PD3692   PD        0.256359    0.502514    0.754513     0.005394
PD3693   PD        0.252847    0.537356    0.717863     0.005394
AU3694   AU        0.289534    0.501667    0.718438     0.007504
PD3695   PD        0.287188    0.538463    0.750491     0.005394
AU3696   AU        0.326070    0.504361    0.754665     0.007504
AU3697   AU        0.324486    0.537901    0.720593     0.007504
AU3698   AU        0.361054    0.505008    0.717679     0.007504
AU3699   AU        0.361522    0.537902    0.753782     0.007504
AU3700   AU        0.395308    0.503204    0.755905     0.007504
AU3701   AU        0.396643    0.536882    0.719299     0.007504
AU3702   AU        0.430633    0.503507    0.718485     0.007504
AU3703   AU        0.431010    0.536429    0.752745     0.007504
AU3704   AU        0.467191    0.505020    0.755500     0.007504
PD3705   PD        0.469609    0.536584    0.717877     0.005394
PD3706   PD        0.504577    0.502684    0.718380     0.005394
PD3707   PD        0.502770    0.537866    0.753575     0.005394
PD3708   PD        0.537145    0.501980    0.752673     0.005394
PD3709   PD        0.539945    0.540701    0.720241     0.005394
PD3710   PD        0.575492    0.502481    0.715960     0.005394
PD3711   PD        0.577590    0.536514    0.752815     0.005394
PD3712   PD        0.612384    0.499807    0.754752     0.005394
PD3713   PD        0.611846    0.536035    0.718746     0.005394
PD3714   PD        0.649473    0.502501    0.716659     0.005394
PD3715   PD        0.650021    0.535772    0.749320     0.005394
PD3716   PD        0.682448    0.498959    0.753978     0.005394
PD3717   PD        0.688466    0.531998    0.717447     0.005394
PD3718   PD        0.716914    0.499996    0.718053     0.005394
PD3719   PD        0.150466    0.571253    0.720035     0.005394
PD3720   PD        0.181229    0.572881    0.750008     0.005394
PD3721   PD        0.183576    0.605156    0.717837     0.005394
AU3722   AU        0.219680    0.572676    0.718676     0.007504
PD3723   PD        0.217750    0.603770    0.752957     0.005394
PD3724   PD        0.254026    0.571907    0.751155     0.005394
AU3725   AU        0.255939    0.604116    0.716932     0.007504
AU3726   AU        0.290082    0.571306    0.719301     0.007504
PD3727   PD        0.290090    0.607312    0.752535     0.005394
PD3728   PD        0.324767    0.570751    0.755573     0.005394
PD3729   PD        0.326936    0.605240    0.717021     0.005394
AU3730   AU        0.359514    0.570624    0.719462     0.007504
PD3731   PD        0.360372    0.602903    0.752696     0.005394
AU3732   AU        0.396758    0.570203    0.753886     0.007504
AU3733   AU        0.398385    0.605581    0.718780     0.007504
PD3734   PD        0.431233    0.571651    0.716410     0.005394
AU3735   AU        0.432945    0.603951    0.754341     0.007504
PD3736   PD        0.468396    0.570701    0.752397     0.005394
AU3737   AU        0.469025    0.603512    0.718424     0.007504
AU3738   AU        0.503647    0.572706    0.717337     0.007504
PD3739   PD        0.503942    0.603976    0.753928     0.005394
PD3740   PD        0.541632    0.570379    0.754465     0.005394
PD3741   PD        0.538854    0.603126    0.718694     0.005394
PD3742   PD        0.577629    0.570116    0.716852     0.005394
PD3743   PD        0.575261    0.603721    0.752073     0.005394
PD3744   PD        0.611673    0.567772    0.754489     0.005394
PD3745   PD        0.610109    0.606752    0.719505     0.005394
PD3746   PD        0.645068    0.570560    0.718263     0.005394
PD3747   PD        0.645137    0.603252    0.753880     0.005394
PD3748   PD        0.685352    0.575688    0.756158     0.005394
PD3749   PD        0.684136    0.600300    0.715225     0.005394
PD3750   PD        0.717660    0.569090    0.715453     0.005394
PD3751   PD        0.218948    0.635816    0.717399     0.005394
PD3752   PD        0.253077    0.639850    0.753079     0.005394
PD3753   PD        0.254844    0.669667    0.720025     0.005394
AU3754   AU        0.290121    0.637320    0.718239     0.007504
PD3755   PD        0.289914    0.669606    0.755426     0.005394
PD3756   PD        0.326008    0.638633    0.752822     0.005394
PD3757   PD        0.327265    0.667847    0.719203     0.005394
AU3758   AU        0.363506    0.637342    0.717877     0.007504
AU3759   AU        0.362301    0.669097    0.754770     0.007504
PD3760   PD        0.399835    0.639675    0.752939     0.005394
PD3761   PD        0.398038    0.671257    0.718109     0.005394
AU3762   AU        0.432355    0.637915    0.717701     0.007504
AU3763   AU        0.433582    0.671606    0.750861     0.007504
AU3764   AU        0.466972    0.637267    0.752318     0.007504
AU3765   AU        0.467800    0.669403    0.716550     0.007504
AU3766   AU        0.504342    0.637119    0.719254     0.007504
PD3767   PD        0.501665    0.671386    0.753703     0.005394
PD3768   PD        0.539465    0.637066    0.752533     0.005394
AU3769   AU        0.538705    0.671781    0.720511     0.007504
AU3770   AU        0.575602    0.638251    0.719269     0.007504
PD3771   PD        0.571837    0.671224    0.752973     0.005394
PD3772   PD        0.610080    0.637299    0.754663     0.005394
PD3773   PD        0.611559    0.669046    0.716945     0.005394
PD3774   PD        0.682782    0.671965    0.713240     0.005394
PD3775   PD        0.291309    0.702690    0.716186     0.005394
PD3776   PD        0.357706    0.703896    0.717426     0.005394
PD3777   PD        0.405270    0.708868    0.757912     0.005394
PD3778   PD        0.394479    0.739125    0.713506     0.005394
PD3779   PD        0.431859    0.703999    0.718304     0.005394
PD3780   PD        0.467969    0.703794    0.750626     0.005394
PD3781   PD        0.431087    0.768860    0.713453     0.005394
PD3782   PD        0.504463    0.702810    0.718982     0.005394
PD3783   PD        0.574330    0.705583    0.716708     0.005394
PD3784   PD        0.398699    0.202771    0.791368     0.005394
PD3785   PD        0.466978    0.201903    0.789694     0.005394
PD3786   PD        0.218056    0.310910    0.788576     0.005394
PD3787   PD        0.329625    0.265844    0.793221     0.005394
PD3788   PD        0.362736    0.231877    0.790770     0.005394
PD3789   PD        0.328838    0.233590    0.828496     0.005394
PD3790   PD        0.397945    0.270773    0.790056     0.005394
PD3791   PD        0.432020    0.234928    0.788619     0.005394
PD3792   PD        0.399088    0.237457    0.822652     0.005394
PD3793   PD        0.466847    0.269277    0.788790     0.005394
PD3794   PD        0.502164    0.238600    0.790421     0.005394
PD3795   PD        0.504635    0.297996    0.862828     0.005394
PD3796   PD        0.540394    0.268535    0.789512     0.005394
PD3797   PD        0.611280    0.270902    0.789523     0.005394
PD3798   PD        0.251599    0.337466    0.789765     0.005394
PD3799   PD        0.284911    0.303709    0.790497     0.005394
PD3800   PD        0.288507    0.337472    0.823568     0.005394
PD3801   PD        0.253366    0.251266    0.808959     0.005394
PD3802   PD        0.326658    0.338033    0.787552     0.005394
PD3803   PD        0.363889    0.303273    0.789961     0.005394
PD3804   PD        0.363808    0.338650    0.823089     0.005394
PD3805   PD        0.399156    0.306413    0.825261     0.005394
AU3806   AU        0.397938    0.339573    0.790510     0.007504
PD3807   PD        0.432186    0.304910    0.788674     0.005394
PD3808   PD        0.430604    0.342633    0.828020     0.005394
PD3809   PD        0.394930    0.272620    0.856032     0.005394
PD3810   PD        0.468349    0.334702    0.789165     0.005394
AU3811   AU        0.502353    0.299660    0.787339     0.007504
PD3812   PD        0.502555    0.333037    0.826206     0.005394
PD3813   PD        0.539418    0.300595    0.824558     0.005394
PD3814   PD        0.539315    0.336654    0.791628     0.005394
AU3815   AU        0.574451    0.302462    0.788933     0.007504
PD3816   PD        0.578760    0.335030    0.824935     0.005394
PD3817   PD        0.610570    0.338061    0.786735     0.005394
PD3818   PD        0.181955    0.405022    0.787904     0.005394
PD3819   PD        0.219341    0.371684    0.789290     0.005394
PD3820   PD        0.253235    0.370182    0.821076     0.005394
AU3821   AU        0.256712    0.402904    0.788447     0.007504
PD3822   PD        0.288149    0.370001    0.786216     0.005394
PD3823   PD        0.292136    0.402951    0.823991     0.005394
PD3824   PD        0.326680    0.369875    0.821297     0.005394
PD3825   PD        0.325799    0.402086    0.789267     0.005394
PD3826   PD        0.361602    0.372151    0.789226     0.005394
PD3827   PD        0.360063    0.374130    0.859426     0.005394
PD3828   PD        0.395046    0.372038    0.824656     0.005394
AU3829   AU        0.397920    0.403071    0.789492     0.007504
AU3830   AU        0.434328    0.368764    0.789299     0.007504
AU3831   AU        0.434121    0.401201    0.822178     0.007504
PD3832   PD        0.471788    0.369903    0.821850     0.005394
PD3833   PD        0.469469    0.403500    0.789369     0.005394
PD3834   PD        0.505555    0.368903    0.789996     0.005394
PD3835   PD        0.500324    0.407372    0.823765     0.005394
PD3836   PD        0.539775    0.364613    0.830018     0.005394
PD3837   PD        0.543575    0.405875    0.790957     0.005394
PD3838   PD        0.572725    0.371826    0.792205     0.005394
PD3839   PD        0.573100    0.434688    0.860499     0.005394
PD3840   PD        0.612764    0.369946    0.820836     0.005394
PD3841   PD        0.611902    0.401735    0.786382     0.005394
PD3842   PD        0.648225    0.371061    0.784658     0.005394
PD3843   PD        0.683603    0.404161    0.788825     0.005394
PD3844   PD        0.183309    0.469501    0.788584     0.005394
PD3845   PD        0.217976    0.439464    0.789146     0.005394
PD3846   PD        0.260535    0.468182    0.863212     0.005394
PD3847   PD        0.252376    0.472227    0.793369     0.005394
PD3848   PD        0.286641    0.438740    0.790361     0.005394
AU3849   AU        0.289578    0.470244    0.823373     0.007504
PD3850   PD        0.323404    0.437696    0.823620     0.005394
PD3851   PD        0.326204    0.473918    0.788617     0.005394
PD3852   PD        0.362785    0.437851    0.785867     0.005394
PD3853   PD        0.362336    0.470828    0.823691     0.005394
PD3854   PD        0.396030    0.440084    0.822815     0.005394
PD3855   PD        0.396392    0.468102    0.786395     0.005394
AU3856   AU        0.432788    0.435902    0.789273     0.007504
PD3857   PD        0.432008    0.469327    0.821658     0.005394
PD3858   PD        0.469730    0.432592    0.826209     0.005394
PD3859   PD        0.467577    0.470659    0.790330     0.005394
PD3860   PD        0.503361    0.435940    0.783720     0.005394
PD3861   PD        0.503743    0.470351    0.819989     0.005394
PD3862   PD        0.538785    0.437053    0.825472     0.005394
PD3863   PD        0.539915    0.468551    0.789126     0.005394
PD3864   PD        0.577549    0.436903    0.787079     0.005394
PD3865   PD        0.576763    0.471931    0.824774     0.005394
PD3866   PD        0.609816    0.436634    0.823217     0.005394
PD3867   PD        0.612101    0.469176    0.786148     0.005394
PD3868   PD        0.646090    0.433949    0.788232     0.005394
PD3869   PD        0.685061    0.465643    0.788195     0.005394
PD3870   PD        0.220159    0.504570    0.787132     0.005394
PD3871   PD        0.254965    0.501281    0.823614     0.005394
PD3872   PD        0.252405    0.538061    0.783989     0.005394
PD3873   PD        0.287892    0.507284    0.791500     0.005394
PD3874   PD        0.287607    0.535711    0.822836     0.005394
PD3875   PD        0.323168    0.505142    0.822608     0.005394
AU3876   AU        0.325149    0.537101    0.788377     0.007504
PD3877   PD        0.360440    0.503739    0.787924     0.005394
PD3878   PD        0.361948    0.534512    0.822213     0.005394
PD3879   PD        0.397465    0.500159    0.824617     0.005394
PD3880   PD        0.395577    0.538391    0.786988     0.005394
AU3881   AU        0.431466    0.504531    0.789064     0.007504
PD3882   PD        0.432678    0.538199    0.823145     0.005394
PD3883   PD        0.466629    0.502939    0.822631     0.005394
PD3884   PD        0.469594    0.538465    0.789104     0.005394
PD3885   PD        0.501919    0.502250    0.787449     0.005394
PD3886   PD        0.501995    0.536130    0.823069     0.005394
PD3887   PD        0.537860    0.502736    0.820858     0.005394
PD3888   PD        0.538624    0.535673    0.786884     0.005394
PD3889   PD        0.576989    0.500012    0.787220     0.005394
PD3890   PD        0.584374    0.502358    0.859964     0.005394
PD3891   PD        0.652036    0.467392    0.824640     0.005394
PD3892   PD        0.617651    0.538632    0.862832     0.005394
PD3893   PD        0.648681    0.499617    0.786972     0.005394
PD3894   PD        0.255676    0.602505    0.789210     0.005394
PD3895   PD        0.291504    0.570631    0.785747     0.005394
PD3896   PD        0.323463    0.570342    0.821911     0.005394
PD3897   PD        0.324412    0.604077    0.787847     0.005394
PD3898   PD        0.359719    0.571317    0.787961     0.005394
PD3899   PD        0.361143    0.604594    0.820715     0.005394
PD3900   PD        0.395427    0.572708    0.819620     0.005394
PD3901   PD        0.398419    0.605064    0.787371     0.005394
AU3902   AU        0.431370    0.569236    0.787347     0.007504
PD3903   PD        0.432120    0.605372    0.822900     0.005394
PD3904   PD        0.467663    0.571472    0.822397     0.005394
PD3905   PD        0.466361    0.603764    0.789448     0.005394
AU3906   AU        0.503607    0.572373    0.788206     0.007504
PD3907   PD        0.511504    0.607534    0.830165     0.005394
PD3908   PD        0.535354    0.570745    0.821875     0.005394
PD3909   PD        0.540386    0.603193    0.788263     0.005394
PD3910   PD        0.574228    0.569223    0.788738     0.005394
PD3911   PD        0.609376    0.598969    0.787285     0.005394
PD3912   PD        0.362183    0.636229    0.787833     0.005394
PD3913   PD        0.398867    0.670164    0.787205     0.005394
PD3914   PD        0.434096    0.634991    0.788088     0.005394
PD3915   PD        0.467687    0.670137    0.786473     0.005394
PD3916   PD        0.503913    0.637214    0.787227     0.005394
PD3917   PD        0.362438    0.462536    0.903814     0.005394
PD3918   PD        0.440198    0.374635    0.862291     0.005394
PD3919   PD        0.508222    0.405308    0.894876     0.005394
PD3920   PD        0.317189    0.448385    0.889532     0.005394
PD3921   PD        0.397010    0.470591    0.861514     0.005394
PD3922   PD        0.433272    0.435483    0.856930     0.005394
PD3923   PD        0.468510    0.469973    0.857829     0.005394
PD3924   PD        0.503849    0.436628    0.860441     0.005394
PD3925   PD        0.449461    0.565232    0.860697     0.005394
