data_00001
_audit_creation_method   'DISCUS'

_data_chemical_name_common 'Pd.cell: Pearson 85'

_cell_length_a             53.0257
_cell_length_b             53.0257
_cell_length_c             53.0257
_cell_angle_alpha     90.0000
_cell_angle_beta      90.0000
_cell_angle_gamma     90.0000

_symmetry_space_group_name_H-M   'P1              '

loop_
_atom_site_label
_atom_site_symbol
_atom_site_fract_x
_atom_site_fract_y
_atom_site_fract_z
_atom_site_u_iso_or_equiv
NI1   NI        0.372915    0.261641    0.046166     0.004307
NI2   NI        0.446161    0.263505    0.045459     0.004307
NI3   NI        0.513697    0.286620    0.027419     0.004307
NI4   NI        0.316777    0.362204    0.036378     0.004307
NI5   NI        0.336921    0.300442    0.045671     0.004307
NI6   NI        0.372591    0.337408    0.043614     0.004307
NI7   NI        0.408982    0.300326    0.045158     0.004307
NI8   NI        0.446799    0.336562    0.044145     0.004307
NI9   NI        0.522081    0.299941    0.008288     0.004307
NI10   NI        0.521191    0.337049    0.045948     0.004307
NI11   NI        0.555889    0.336478    0.082724     0.004307
NI12   NI        0.633183    0.337574    0.009117     0.004307
NI13   NI        0.223913    0.375557    0.084110     0.004307
NI14   NI        0.298869    0.412174    0.044657     0.004307
NI15   NI        0.337115    0.375178    0.046089     0.004307
NI16   NI        0.372689    0.412529    0.045029     0.004307
NI17   NI        0.410226    0.375606    0.044940     0.004307
NI18   NI        0.409970    0.410218    0.007148     0.004307
NI19   NI        0.485137    0.337225    0.007091     0.004307
NI20   NI        0.446835    0.411875    0.044505     0.004307
NI21   NI        0.484098    0.373958    0.043678     0.004307
NI22   NI        0.484293    0.411208    0.007273     0.004307
NI23   NI        0.520442    0.410478    0.043511     0.004307
NI24   NI        0.556575    0.372201    0.044937     0.004307
NI25   NI        0.595676    0.448333    0.008777     0.004307
NI26   NI        0.631302    0.374315    0.045079     0.004307
NI27   NI        0.261280    0.449293    0.045475     0.004307
NI28   NI        0.318356    0.500499    0.034839     0.004307
NI29   NI        0.335208    0.449007    0.044545     0.004307
NI30   NI        0.372779    0.447794    0.009201     0.004307
NI31   NI        0.373335    0.483198    0.045108     0.004307
PD32   PD        0.408986    0.449872    0.044165     0.005394
NI33   NI        0.386453    0.453213    0.006383     0.004307
NI34   NI        0.433085    0.433761    0.000769     0.004307
NI35   NI        0.447827    0.485864    0.043038     0.004307
NI36   NI        0.507729    0.435746    0.048733     0.004307
NI37   NI        0.485538    0.486637    0.008835     0.004307
NI38   NI        0.520677    0.448241    0.007728     0.004307
NI39   NI        0.521296    0.484435    0.044698     0.004307
NI40   NI        0.557036    0.450665    0.044986     0.004307
NI41   NI        0.597414    0.483549    0.046048     0.004307
NI42   NI        0.631865    0.448609    0.044658     0.004307
NI43   NI        0.283493    0.541075    0.036165     0.004307
NI44   NI        0.305740    0.586779    0.033958     0.004307
NI45   NI        0.328449    0.542821    0.057449     0.004307
NI46   NI        0.336141    0.596263    0.047609     0.004307
PD47   PD        0.412189    0.522379    0.044156     0.005394
NI48   NI        0.448187    0.522926    0.007294     0.004307
NI49   NI        0.446621    0.561057    0.044004     0.004307
NI50   NI        0.484436    0.523618    0.044625     0.004307
NI51   NI        0.530328    0.557576    0.071201     0.004307
NI52   NI        0.559837    0.560495    0.036730     0.004307
NI53   NI        0.595954    0.559683    0.045032     0.004307
NI54   NI        0.670340    0.557605    0.044813     0.004307
NI55   NI        0.353410    0.583725    0.039697     0.004307
NI56   NI        0.376689    0.607603    0.082567     0.004307
NI57   NI        0.410357    0.597914    0.045172     0.004307
NI58   NI        0.460090    0.640423    0.057773     0.004307
NI59   NI        0.483530    0.599321    0.046786     0.004307
NI60   NI        0.519852    0.633747    0.044546     0.004307
NI61   NI        0.558003    0.596943    0.044893     0.004307
NI62   NI        0.300046    0.190382    0.120609     0.004307
NI63   NI        0.410168    0.185896    0.113211     0.004307
NI64   NI        0.410821    0.154414    0.121261     0.004307
NI65   NI        0.411393    0.190076    0.082502     0.004307
NI66   NI        0.443877    0.192548    0.126615     0.004307
NI67   NI        0.484594    0.153455    0.122947     0.004307
NI68   NI        0.483131    0.221524    0.074561     0.004307
NI69   NI        0.519821    0.189458    0.120919     0.004307
NI70   NI        0.588557    0.185012    0.132468     0.004307
NI71   NI        0.257351    0.259444    0.096047     0.004307
NI72   NI        0.261895    0.189463    0.083296     0.004307
NI73   NI        0.264123    0.263692    0.082304     0.004307
NI74   NI        0.301249    0.264313    0.118131     0.004307
NI75   NI        0.351156    0.196531    0.107369     0.004307
NI76   NI        0.358823    0.260927    0.114932     0.004307
NI77   NI        0.374897    0.227945    0.082700     0.004307
PD78   PD        0.372545    0.263094    0.118969     0.005394
NI79   NI        0.395231    0.205770    0.126234     0.004307
NI80   NI        0.411043    0.263370    0.084093     0.004307
NI81   NI        0.448337    0.227489    0.083753     0.004307
PD82   PD        0.447373    0.264117    0.120194     0.005394
NI83   NI        0.485087    0.226940    0.120115     0.004307
NI84   NI        0.461734    0.231493    0.077373     0.004307
NI85   NI        0.522145    0.226389    0.082897     0.004307
NI86   NI        0.520664    0.263818    0.119560     0.004307
NI87   NI        0.559122    0.227054    0.120035     0.004307
NI88   NI        0.557671    0.262985    0.083479     0.004307
NI89   NI        0.594741    0.263827    0.120233     0.004307
NI90   NI        0.634290    0.229764    0.122720     0.004307
NI91   NI        0.636375    0.224348    0.076715     0.004307
NI92   NI        0.680946    0.248640    0.109322     0.004307
NI93   NI        0.189630    0.300873    0.119251     0.004307
NI94   NI        0.225781    0.338919    0.119797     0.004307
NI95   NI        0.263451    0.300978    0.119679     0.004307
NI96   NI        0.253026    0.364957    0.066667     0.004307
NI97   NI        0.300605    0.300939    0.081089     0.004307
PD98   PD        0.299465    0.337924    0.117231     0.005394
PD99   PD        0.337414    0.301917    0.118748     0.005394
PD100   PD        0.335650    0.338830    0.081033     0.005394
NI101   NI        0.357348    0.293622    0.082011     0.004307
PD102   PD        0.373572    0.339312    0.120923     0.005394
NI103   NI        0.436955    0.290419    0.104643     0.004307
NI104   NI        0.401296    0.317349    0.062522     0.004307
PD105   PD        0.447545    0.300199    0.082228     0.005394
PD106   PD        0.448953    0.338050    0.118881     0.005394
PD107   PD        0.484362    0.300351    0.118940     0.005394
NI108   NI        0.470986    0.365304    0.070771     0.004307
NI109   NI        0.557805    0.299338    0.045627     0.004307
PD110   PD        0.521997    0.337604    0.117791     0.005394
PD111   PD        0.558504    0.300060    0.118456     0.005394
PD112   PD        0.557326    0.336537    0.081664     0.005394
NI113   NI        0.594203    0.301424    0.082328     0.004307
NI114   NI        0.604104    0.355394    0.108269     0.004307
NI115   NI        0.633073    0.300523    0.117948     0.004307
NI116   NI        0.629307    0.324052    0.058315     0.004307
NI117   NI        0.670781    0.301481    0.082799     0.004307
NI118   NI        0.720002    0.277988    0.121836     0.004307
NI119   NI        0.151493    0.413713    0.119419     0.004307
NI120   NI        0.189576    0.376879    0.119372     0.004307
NI121   NI        0.163119    0.413491    0.105733     0.004307
NI122   NI        0.188788    0.336540    0.081330     0.004307
PD123   PD        0.225462    0.413455    0.118377     0.005394
PD124   PD        0.262534    0.376634    0.117591     0.005394
NI125   NI        0.261664    0.411763    0.081257     0.004307
NI126   NI        0.299077    0.376320    0.081128     0.004307
PD127   PD        0.296841    0.412867    0.116726     0.005394
PD128   PD        0.335655    0.376163    0.118107     0.005394
PD129   PD        0.336328    0.411862    0.081972     0.005394
PD130   PD        0.373384    0.374826    0.080771     0.005394
PD131   PD        0.373457    0.412763    0.117777     0.005394
NI132   NI        0.408135    0.409533    0.142492     0.004307
PD133   PD        0.409531    0.410586    0.082459     0.005394
PD134   PD        0.448193    0.373497    0.081231     0.005394
PD135   PD        0.447536    0.412362    0.116723     0.005394
PD136   PD        0.482949    0.373623    0.118906     0.005394
PD137   PD        0.482588    0.412533    0.079909     0.005394
PD138   PD        0.521071    0.374673    0.079980     0.005394
NI139   NI        0.530856    0.424158    0.091532     0.004307
PD140   PD        0.557254    0.373264    0.118588     0.005394
NI141   NI        0.558643    0.410007    0.078285     0.004307
NI142   NI        0.596598    0.373867    0.081420     0.004307
NI143   NI        0.568859    0.441987    0.114009     0.004307
NI144   NI        0.632720    0.374856    0.119655     0.004307
NI145   NI        0.633128    0.410733    0.080099     0.004307
NI146   NI        0.706586    0.374699    0.044691     0.004307
NI147   NI        0.669314    0.410277    0.117740     0.004307
NI148   NI        0.690313    0.361477    0.115243     0.004307
NI149   NI        0.707437    0.411818    0.082849     0.004307
NI150   NI        0.744446    0.411817    0.118860     0.004307
NI151   NI        0.114516    0.486350    0.084315     0.004307
NI152   NI        0.189641    0.449632    0.119145     0.004307
NI153   NI        0.189223    0.487482    0.081491     0.004307
NI154   NI        0.226504    0.450031    0.081717     0.004307
NI155   NI        0.225060    0.486134    0.118800     0.004307
NI156   NI        0.260590    0.449038    0.118926     0.004307
NI157   NI        0.262385    0.488787    0.082726     0.004307
NI158   NI        0.273886    0.489075    0.080280     0.004307
PD159   PD        0.298934    0.486547    0.118894     0.005394
PD160   PD        0.335047    0.448616    0.116434     0.005394
PD161   PD        0.336286    0.485991    0.081675     0.005394
PD162   PD        0.372981    0.449757    0.082051     0.005394
PD163   PD        0.373254    0.487157    0.118306     0.005394
PD164   PD        0.410065    0.449857    0.116105     0.005394
PD165   PD        0.410801    0.485525    0.081737     0.005394
PD166   PD        0.446392    0.448744    0.080028     0.005394
PD167   PD        0.447170    0.484922    0.117073     0.005394
PD168   PD        0.484169    0.447958    0.116952     0.005394
PD169   PD        0.484556    0.485036    0.081165     0.005394
PD170   PD        0.521656    0.447626    0.079211     0.005394
PD171   PD        0.521121    0.483717    0.117190     0.005394
PD172   PD        0.558306    0.448217    0.116525     0.005394
PD173   PD        0.557843    0.485436    0.081698     0.005394
NI174   NI        0.618194    0.457221    0.089513     0.004307
PD175   PD        0.596366    0.484342    0.116835     0.005394
PD176   PD        0.631113    0.447627    0.118797     0.005394
NI177   NI        0.647585    0.491704    0.064133     0.004307
NI178   NI        0.669323    0.447468    0.082201     0.004307
NI179   NI        0.682255    0.494131    0.142518     0.004307
NI180   NI        0.707586    0.446702    0.117547     0.004307
NI181   NI        0.707405    0.484755    0.082964     0.004307
NI182   NI        0.743442    0.483965    0.119353     0.004307
NI183   NI        0.189956    0.549266    0.132543     0.004307
NI184   NI        0.227064    0.523712    0.082259     0.004307
NI185   NI        0.218912    0.583405    0.102410     0.004307
NI186   NI        0.263075    0.522874    0.118956     0.004307
NI187   NI        0.263304    0.560822    0.082508     0.004307
NI188   NI        0.299839    0.523507    0.082162     0.004307
PD189   PD        0.301242    0.559490    0.118530     0.005394
PD190   PD        0.335987    0.521827    0.119914     0.005394
NI191   NI        0.372359    0.562053    0.073063     0.004307
PD192   PD        0.373552    0.523187    0.080821     0.005394
PD193   PD        0.375531    0.559284    0.118927     0.005394
PD194   PD        0.411423    0.522835    0.118048     0.005394
NI195   NI        0.410173    0.559362    0.081801     0.004307
PD196   PD        0.446822    0.523247    0.079988     0.005394
PD197   PD        0.447569    0.559737    0.116952     0.005394
PD198   PD        0.485452    0.523110    0.115517     0.005394
PD199   PD        0.483746    0.559240    0.082350     0.005394
PD200   PD        0.521369    0.522132    0.080641     0.005394
PD201   PD        0.521611    0.558135    0.116906     0.005394
PD202   PD        0.557994    0.521931    0.115736     0.005394
PD203   PD        0.558326    0.559565    0.080560     0.005394
NI204   NI        0.605473    0.511660    0.087519     0.004307
NI205   NI        0.560197    0.554411    0.090780     0.004307
NI206   NI        0.627671    0.536951    0.121471     0.004307
NI207   NI        0.644021    0.581584    0.070170     0.004307
NI208   NI        0.695762    0.529200    0.066522     0.004307
NI209   NI        0.687779    0.568051    0.092725     0.004307
NI210   NI        0.706752    0.521023    0.117302     0.004307
NI211   NI        0.188541    0.597714    0.119945     0.004307
NI212   NI        0.226896    0.634306    0.118802     0.004307
NI213   NI        0.263237    0.597306    0.119435     0.004307
NI214   NI        0.252154    0.647978    0.108718     0.004307
NI215   NI        0.325682    0.612665    0.069560     0.004307
NI216   NI        0.299934    0.634304    0.120408     0.004307
NI217   NI        0.344862    0.575815    0.091610     0.004307
NI218   NI        0.336766    0.633617    0.081835     0.004307
NI219   NI        0.374404    0.596411    0.083265     0.004307
PD220   PD        0.373625    0.634080    0.119491     0.005394
PD221   PD        0.411866    0.595476    0.118425     0.005394
NI222   NI        0.410314    0.633017    0.081401     0.004307
NI223   NI        0.447642    0.597745    0.083577     0.004307
PD224   PD        0.448477    0.633774    0.118942     0.005394
PD225   PD        0.485287    0.596222    0.118928     0.005394
NI226   NI        0.483677    0.634609    0.081818     0.004307
NI227   NI        0.520370    0.596108    0.081095     0.004307
PD228   PD        0.522355    0.632228    0.119283     0.005394
NI229   NI        0.556836    0.595928    0.117669     0.004307
NI230   NI        0.557909    0.633116    0.082092     0.004307
NI231   NI        0.595357    0.595634    0.082485     0.004307
NI232   NI        0.595484    0.632114    0.118466     0.004307
NI233   NI        0.631985    0.595252    0.117790     0.004307
NI234   NI        0.632883    0.630450    0.080335     0.004307
NI235   NI        0.669368    0.631236    0.119283     0.004307
NI236   NI        0.703286    0.558770    0.081211     0.004307
NI237   NI        0.264060    0.709815    0.084680     0.004307
NI238   NI        0.261768    0.712139    0.115869     0.004307
NI239   NI        0.308818    0.693544    0.110804     0.004307
NI240   NI        0.394721    0.675385    0.097553     0.004307
NI241   NI        0.375399    0.744545    0.156262     0.004307
NI242   NI        0.445432    0.670413    0.091446     0.004307
NI243   NI        0.413255    0.708279    0.082777     0.004307
NI244   NI        0.445837    0.671123    0.081969     0.004307
NI245   NI        0.448828    0.709917    0.119312     0.004307
NI246   NI        0.497080    0.680116    0.091296     0.004307
NI247   NI        0.481685    0.707618    0.083892     0.004307
NI248   NI        0.523740    0.641698    0.071528     0.004307
NI249   NI        0.521850    0.707645    0.121349     0.004307
NI250   NI        0.559230    0.668210    0.118744     0.004307
NI251   NI        0.596210    0.706063    0.120135     0.004307
NI252   NI        0.658055    0.678940    0.109314     0.004307
NI253   NI        0.411060    0.744961    0.119586     0.004307
NI254   NI        0.486870    0.744924    0.120108     0.004307
NI255   NI        0.302237    0.115938    0.194549     0.004307
NI256   NI        0.358162    0.111837    0.180730     0.004307
NI257   NI        0.411998    0.078825    0.195707     0.004307
NI258   NI        0.411223    0.116030    0.159224     0.004307
NI259   NI        0.449534    0.115766    0.194476     0.004307
NI260   NI        0.484953    0.078708    0.193561     0.004307
NI261   NI        0.485190    0.116268    0.157277     0.004307
NI262   NI        0.522798    0.115935    0.192793     0.004307
NI263   NI        0.594362    0.114741    0.194466     0.004307
NI264   NI        0.226197    0.189366    0.194620     0.004307
NI265   NI        0.227156    0.154848    0.155564     0.004307
NI266   NI        0.266763    0.192049    0.157798     0.004307
NI267   NI        0.300352    0.153787    0.156839     0.004307
NI268   NI        0.303472    0.192112    0.194203     0.004307
NI269   NI        0.338782    0.152104    0.194347     0.004307
NI270   NI        0.316883    0.203727    0.145720     0.004307
NI271   NI        0.375102    0.153232    0.156204     0.004307
PD272   PD        0.374339    0.191223    0.193400     0.005394
PD273   PD        0.411224    0.153955    0.194812     0.005394
NI274   NI        0.412452    0.192486    0.158423     0.004307
NI275   NI        0.448183    0.154345    0.158274     0.004307
PD276   PD        0.447570    0.189836    0.194699     0.005394
PD277   PD        0.486084    0.153543    0.193770     0.005394
PD278   PD        0.485295    0.190244    0.157739     0.005394
NI279   NI        0.522892    0.153095    0.157886     0.004307
PD280   PD        0.523378    0.189223    0.192861     0.005394
PD281   PD        0.560156    0.152210    0.194069     0.005394
NI282   NI        0.561988    0.186446    0.186792     0.004307
NI283   NI        0.594825    0.155978    0.156937     0.004307
NI284   NI        0.611047    0.183901    0.177924     0.004307
NI285   NI        0.619597    0.132019    0.222784     0.004307
NI286   NI        0.634090    0.191214    0.157968     0.004307
NI287   NI        0.671525    0.190070    0.193873     0.004307
NI288   NI        0.153405    0.264819    0.194235     0.004307
NI289   NI        0.189431    0.227387    0.194088     0.004307
NI290   NI        0.182250    0.259513    0.191677     0.004307
NI291   NI        0.225550    0.218037    0.170423     0.004307
NI292   NI        0.226214    0.264941    0.193346     0.004307
PD293   PD        0.264202    0.226454    0.193639     0.005394
NI294   NI        0.259883    0.288016    0.126272     0.004307
NI295   NI        0.300009    0.227298    0.154900     0.004307
PD296   PD        0.299530    0.264199    0.192303     0.005394
PD297   PD        0.338016    0.228321    0.193690     0.005394
PD298   PD        0.337004    0.265515    0.157114     0.005394
NI299   NI        0.353155    0.224598    0.145343     0.004307
PD300   PD        0.374785    0.264659    0.193728     0.005394
PD301   PD        0.411269    0.227473    0.194306     0.005394
PD302   PD        0.411613    0.264022    0.156433     0.005394
PD303   PD        0.448002    0.227261    0.159070     0.005394
PD304   PD        0.448308    0.263436    0.191932     0.005394
PD305   PD        0.484831    0.227464    0.195338     0.005394
PD306   PD        0.486072    0.264466    0.156053     0.005394
NI307   NI        0.508937    0.221338    0.132669     0.004307
PD308   PD        0.522775    0.263794    0.193276     0.005394
PD309   PD        0.559741    0.227096    0.194499     0.005394
PD310   PD        0.558063    0.264940    0.157125     0.005394
NI311   NI        0.595652    0.227551    0.157576     0.004307
PD312   PD        0.597083    0.263637    0.192843     0.005394
PD313   PD        0.634753    0.226694    0.192967     0.005394
NI314   NI        0.660766    0.236643    0.154718     0.004307
NI315   NI        0.670084    0.227623    0.157157     0.004307
PD316   PD        0.669869    0.264670    0.194766     0.005394
NI317   NI        0.705779    0.228035    0.194182     0.004307
NI318   NI        0.695304    0.288517    0.163967     0.004307
NI319   NI        0.742380    0.265289    0.194446     0.004307
NI320   NI        0.113613    0.301891    0.194066     0.004307
NI321   NI        0.170256    0.310833    0.121786     0.004307
NI322   NI        0.149279    0.380061    0.184491     0.004307
NI323   NI        0.188737    0.302442    0.192502     0.004307
NI324   NI        0.188020    0.338604    0.155616     0.004307
NI325   NI        0.230913    0.304145    0.158300     0.004307
PD326   PD        0.226926    0.338216    0.191512     0.005394
NI327   NI        0.271694    0.328980    0.177055     0.004307
PD328   PD        0.263870    0.338480    0.153602     0.005394
PD329   PD        0.299765    0.300360    0.154295     0.005394
PD330   PD        0.299925    0.335877    0.192424     0.005394
PD331   PD        0.337158    0.301084    0.191233     0.005394
PD332   PD        0.336011    0.338772    0.153511     0.005394
NI333   NI        0.382510    0.283688    0.175677     0.004307
PD334   PD        0.374994    0.372289    0.163798     0.005394
NI335   NI        0.431200    0.301966    0.185726     0.004307
NI336   NI        0.383742    0.324582    0.145025     0.004307
PD337   PD        0.449639    0.302158    0.154487     0.005394
PD338   PD        0.448313    0.338330    0.192421     0.005394
PD339   PD        0.485926    0.300146    0.192184     0.005394
PD340   PD        0.484837    0.336862    0.155237     0.005394
PD341   PD        0.521052    0.302027    0.156558     0.005394
PD342   PD        0.521574    0.336437    0.193406     0.005394
NI343   NI        0.583710    0.297958    0.181955     0.004307
PD344   PD        0.558818    0.335800    0.156129     0.005394
PD345   PD        0.596390    0.298086    0.155766     0.005394
PD346   PD        0.598776    0.339587    0.190891     0.005394
PD347   PD        0.632513    0.299802    0.194108     0.005394
NI348   NI        0.634935    0.367580    0.147464     0.004307
NI349   NI        0.669376    0.299345    0.157128     0.004307
NI350   NI        0.694485    0.323834    0.199063     0.004307
PD351   PD        0.705935    0.300224    0.195034     0.005394
PD352   PD        0.706818    0.337687    0.157317     0.005394
NI353   NI        0.740201    0.300186    0.157773     0.004307
NI354   NI        0.765853    0.327935    0.171042     0.004307
NI355   NI        0.784189    0.299469    0.195360     0.004307
NI356   NI        0.039752    0.411258    0.167161     0.004307
NI357   NI        0.107009    0.408160    0.192874     0.004307
NI358   NI        0.115584    0.412604    0.156659     0.004307
NI359   NI        0.143348    0.338005    0.150986     0.004307
NI360   NI        0.150935    0.426264    0.190562     0.004307
PD361   PD        0.189364    0.375261    0.193162     0.005394
NI362   NI        0.188494    0.413210    0.156694     0.004307
NI363   NI        0.215878    0.372966    0.199445     0.004307
NI364   NI        0.202150    0.441939    0.217189     0.004307
PD365   PD        0.263981    0.375194    0.191275     0.005394
PD366   PD        0.261945    0.412164    0.153665     0.005394
PD367   PD        0.298570    0.375125    0.154043     0.005394
PD368   PD        0.299955    0.412589    0.191347     0.005394
PD369   PD        0.336695    0.375455    0.190347     0.005394
NI370   NI        0.302059    0.408617    0.124036     0.004307
PD371   PD        0.373569    0.376242    0.154508     0.005394
PD372   PD        0.375173    0.413166    0.191418     0.005394
PD373   PD        0.411642    0.337125    0.155641     0.005394
PD374   PD        0.410326    0.412457    0.153687     0.005394
PD375   PD        0.446797    0.374484    0.154988     0.005394
PD376   PD        0.442086    0.414492    0.215754     0.005394
PD377   PD        0.487225    0.373448    0.190200     0.005394
NI378   NI        0.507549    0.403391    0.156619     0.004307
PD379   PD        0.522117    0.372179    0.155099     0.005394
NI380   NI        0.551655    0.403090    0.174067     0.004307
PD381   PD        0.558964    0.373889    0.191516     0.005394
PD382   PD        0.559223    0.410174    0.154081     0.005394
PD383   PD        0.594177    0.373377    0.154947     0.005394
PD384   PD        0.595341    0.409470    0.191858     0.005394
PD385   PD        0.632872    0.373956    0.194213     0.005394
PD386   PD        0.632513    0.411353    0.154785     0.005394
PD387   PD        0.670027    0.375397    0.157782     0.005394
PD388   PD        0.669224    0.409394    0.192495     0.005394
PD389   PD        0.705687    0.372893    0.194587     0.005394
NI390   NI        0.705680    0.410483    0.156524     0.004307
NI391   NI        0.740867    0.341542    0.124321     0.004307
NI392   NI        0.750086    0.371767    0.186162     0.004307
NI393   NI        0.777505    0.374768    0.194636     0.004307
NI394   NI        0.778168    0.375061    0.117905     0.004307
NI395   NI        0.847144    0.445678    0.191638     0.004307
NI396   NI        0.065521    0.475641    0.214523     0.004307
NI397   NI        0.116263    0.450511    0.193260     0.004307
NI398   NI        0.081796    0.463193    0.168893     0.004307
NI399   NI        0.145144    0.434811    0.144286     0.004307
NI400   NI        0.120391    0.495892    0.174389     0.004307
NI401   NI        0.165494    0.428211    0.186094     0.004307
NI402   NI        0.163676    0.472803    0.164972     0.004307
PD403   PD        0.226562    0.448953    0.155778     0.005394
NI404   NI        0.216306    0.473528    0.176673     0.004307
PD405   PD        0.262073    0.449506    0.191953     0.005394
PD406   PD        0.263028    0.486864    0.154738     0.005394
PD407   PD        0.297849    0.449409    0.155153     0.005394
PD408   PD        0.298978    0.485629    0.192054     0.005394
PD409   PD        0.337029    0.448001    0.191433     0.005394
PD410   PD        0.337222    0.485299    0.154786     0.005394
PD411   PD        0.373710    0.449041    0.153214     0.005394
PD412   PD        0.374044    0.486222    0.191911     0.005394
PD413   PD        0.410541    0.446627    0.191228     0.005394
NI414   NI        0.411767    0.455492    0.126677     0.004307
PD415   PD        0.448957    0.448214    0.154976     0.005394
PD416   PD        0.447003    0.484539    0.190384     0.005394
NI417   NI        0.480057    0.423395    0.181645     0.004307
PD418   PD        0.484870    0.486795    0.154631     0.005394
PD419   PD        0.522223    0.448786    0.155348     0.005394
PD420   PD        0.522303    0.485739    0.190492     0.005394
PD421   PD        0.558910    0.447781    0.190950     0.005394
PD422   PD        0.559012    0.483651    0.153394     0.005394
PD423   PD        0.594596    0.445692    0.154503     0.005394
PD424   PD        0.595683    0.484500    0.191182     0.005394
PD425   PD        0.630816    0.446856    0.191607     0.005394
PD426   PD        0.633101    0.485531    0.155972     0.005394
NI427   NI        0.679653    0.425420    0.149685     0.004307
PD428   PD        0.668436    0.483674    0.192477     0.005394
NI429   NI        0.703155    0.453979    0.202780     0.004307
NI430   NI        0.714606    0.502560    0.180086     0.004307
NI431   NI        0.766353    0.423407    0.149135     0.004307
NI432   NI        0.743964    0.484099    0.192608     0.004307
NI433   NI        0.779805    0.446141    0.193306     0.004307
NI434   NI        0.773993    0.485409    0.162662     0.004307
NI435   NI        0.813605    0.486142    0.194735     0.004307
NI436   NI        0.093540    0.536123    0.183161     0.004307
NI437   NI        0.152381    0.524070    0.157451     0.004307
NI438   NI        0.140620    0.535754    0.204358     0.004307
NI439   NI        0.170184    0.532794    0.219600     0.004307
NI440   NI        0.178221    0.594733    0.152020     0.004307
PD441   PD        0.225466    0.522976    0.156377     0.005394
PD442   PD        0.226711    0.561527    0.194701     0.005394
NI443   NI        0.252855    0.550154    0.180372     0.004307
NI444   NI        0.252409    0.560084    0.132007     0.004307
NI445   NI        0.317878    0.514485    0.151945     0.004307
PD446   PD        0.298868    0.559672    0.192654     0.005394
PD447   PD        0.338538    0.522225    0.193597     0.005394
PD448   PD        0.337099    0.560054    0.155453     0.005394
PD449   PD        0.374142    0.523001    0.156079     0.005394
PD450   PD        0.374393    0.559526    0.191870     0.005394
PD451   PD        0.410710    0.521615    0.191018     0.005394
PD452   PD        0.410057    0.560910    0.154774     0.005394
NI453   NI        0.461055    0.531206    0.130403     0.004307
NI454   NI        0.436909    0.557037    0.170049     0.004307
PD455   PD        0.485415    0.523371    0.191622     0.005394
PD456   PD        0.485678    0.558725    0.154252     0.005394
PD457   PD        0.521598    0.521304    0.152091     0.005394
PD458   PD        0.521928    0.558210    0.191840     0.005394
PD459   PD        0.560354    0.519853    0.188408     0.005394
NI460   NI        0.591654    0.569690    0.142090     0.004307
PD461   PD        0.596774    0.519861    0.153693     0.005394
PD462   PD        0.596375    0.557397    0.192167     0.005394
PD463   PD        0.632113    0.520807    0.192492     0.005394
NI464   NI        0.649402    0.567181    0.181312     0.004307
NI465   NI        0.684702    0.537754    0.159489     0.004307
PD466   PD        0.669189    0.558107    0.192412     0.005394
NI467   NI        0.696013    0.547251    0.178691     0.004307
NI468   NI        0.716726    0.568913    0.183855     0.004307
NI469   NI        0.744126    0.521832    0.156420     0.004307
NI470   NI        0.744077    0.558056    0.195115     0.004307
NI471   NI        0.788867    0.522382    0.221926     0.004307
NI472   NI        0.130937    0.609357    0.162666     0.004307
NI473   NI        0.154090    0.599822    0.156237     0.004307
NI474   NI        0.154134    0.635598    0.194245     0.004307
NI475   NI        0.184651    0.620757    0.237030     0.004307
NI476   NI        0.179152    0.608354    0.155853     0.004307
NI477   NI        0.227223    0.599080    0.156851     0.004307
NI478   NI        0.226116    0.633600    0.191568     0.004307
PD479   PD        0.263062    0.595692    0.194769     0.005394
NI480   NI        0.262039    0.633245    0.156864     0.004307
PD481   PD        0.301283    0.597481    0.155769     0.005394
PD482   PD        0.300300    0.634128    0.193360     0.005394
NI483   NI        0.339828    0.625372    0.165124     0.004307
PD484   PD        0.337985    0.632622    0.156044     0.005394
PD485   PD        0.375276    0.595382    0.155225     0.005394
PD486   PD        0.374420    0.631715    0.191498     0.005394
PD487   PD        0.411706    0.595481    0.191877     0.005394
PD488   PD        0.410170    0.633313    0.156267     0.005394
PD489   PD        0.448386    0.595926    0.154639     0.005394
NI490   NI        0.464379    0.638145    0.205233     0.004307
PD491   PD        0.485381    0.594807    0.190837     0.005394
PD492   PD        0.485165    0.631472    0.155807     0.005394
NI493   NI        0.523408    0.602067    0.171856     0.004307
PD494   PD        0.522619    0.633013    0.193521     0.005394
PD495   PD        0.562216    0.591477    0.197177     0.005394
PD496   PD        0.560298    0.634024    0.156208     0.005394
PD497   PD        0.597194    0.596128    0.155998     0.005394
PD498   PD        0.595847    0.632710    0.191027     0.005394
PD499   PD        0.632404    0.595661    0.193155     0.005394
NI500   NI        0.631866    0.632255    0.156633     0.004307
NI501   NI        0.663201    0.563392    0.134266     0.004307
NI502   NI        0.670057    0.631781    0.191859     0.004307
NI503   NI        0.707594    0.594369    0.192383     0.004307
NI504   NI        0.673675    0.646892    0.162668     0.004307
NI505   NI        0.745050    0.594967    0.157253     0.004307
NI506   NI        0.777762    0.632110    0.162921     0.004307
NI507   NI        0.776371    0.599532    0.196617     0.004307
NI508   NI        0.191349    0.669368    0.195801     0.004307
NI509   NI        0.226308    0.670613    0.156489     0.004307
NI510   NI        0.211429    0.719993    0.185469     0.004307
NI511   NI        0.240405    0.679941    0.194321     0.004307
NI512   NI        0.262428    0.708694    0.160921     0.004307
NI513   NI        0.275702    0.672828    0.145720     0.004307
NI514   NI        0.301874    0.707461    0.194363     0.004307
NI515   NI        0.342903    0.686459    0.201992     0.004307
NI516   NI        0.326951    0.675324    0.158407     0.004307
PD517   PD        0.374716    0.670589    0.156012     0.005394
NI518   NI        0.346006    0.738115    0.194254     0.004307
PD519   PD        0.411669    0.669552    0.192732     0.005394
NI520   NI        0.410964    0.707621    0.156612     0.004307
NI521   NI        0.422468    0.674683    0.138491     0.004307
PD522   PD        0.448863    0.706727    0.192273     0.005394
NI523   NI        0.516085    0.636577    0.204249     0.004307
NI524   NI        0.486040    0.706935    0.155995     0.004307
NI525   NI        0.522472    0.668415    0.157485     0.004307
NI526   NI        0.522798    0.703823    0.194438     0.004307
PD527   PD        0.560426    0.669973    0.192987     0.005394
NI528   NI        0.560135    0.704838    0.156636     0.004307
NI529   NI        0.595567    0.669114    0.153883     0.004307
NI530   NI        0.623789    0.739821    0.196218     0.004307
NI531   NI        0.630313    0.696710    0.215791     0.004307
NI532   NI        0.633663    0.706514    0.156049     0.004307
NI533   NI        0.668614    0.669199    0.157657     0.004307
NI534   NI        0.682278    0.712699    0.220788     0.004307
NI535   NI        0.739609    0.669313    0.162663     0.004307
NI536   NI        0.300528    0.773825    0.199734     0.004307
NI537   NI        0.267990    0.754280    0.146169     0.004307
NI538   NI        0.336309    0.787508    0.187528     0.004307
NI539   NI        0.337526    0.742920    0.194913     0.004307
NI540   NI        0.353275    0.755675    0.146646     0.004307
NI541   NI        0.345881    0.756835    0.194329     0.004307
NI542   NI        0.412325    0.743183    0.193858     0.004307
NI543   NI        0.414761    0.815161    0.128595     0.004307
NI544   NI        0.485069    0.736064    0.124353     0.004307
NI545   NI        0.451901    0.785174    0.219922     0.004307
NI546   NI        0.487667    0.733386    0.194769     0.004307
NI547   NI        0.486193    0.816631    0.194174     0.004307
NI548   NI        0.528806    0.709539    0.189210     0.004307
NI549   NI        0.524843    0.778892    0.191917     0.004307
NI550   NI        0.550951    0.757190    0.200806     0.004307
NI551   NI        0.597395    0.743392    0.156677     0.004307
NI552   NI        0.596305    0.780107    0.195548     0.004307
NI553   NI        0.633130    0.742263    0.195569     0.004307
NI554   NI        0.374169    0.813346    0.236939     0.004307
NI555   NI        0.475872    0.792682    0.186285     0.004307
NI556   NI        0.338469    0.043572    0.236773     0.004307
NI557   NI        0.448559    0.044068    0.268249     0.004307
NI558   NI        0.498092    0.025422    0.258301     0.004307
NI559   NI        0.229514    0.117677    0.269429     0.004307
NI560   NI        0.266777    0.082353    0.269605     0.004307
NI561   NI        0.227029    0.152919    0.231411     0.004307
NI562   NI        0.298062    0.146041    0.266961     0.004307
NI563   NI        0.338654    0.081639    0.268774     0.004307
NI564   NI        0.336938    0.116737    0.230382     0.004307
NI565   NI        0.375021    0.079851    0.233437     0.004307
PD566   PD        0.375721    0.116305    0.267598     0.005394
NI567   NI        0.412250    0.080771    0.267996     0.004307
PD568   PD        0.413143    0.117810    0.229841     0.005394
NI569   NI        0.450429    0.079978    0.232176     0.004307
PD570   PD        0.449308    0.115889    0.266089     0.005394
NI571   NI        0.503462    0.062776    0.259153     0.004307
PD572   PD        0.486445    0.118368    0.230864     0.005394
NI573   NI        0.524530    0.071061    0.265504     0.004307
PD574   PD        0.523970    0.116413    0.267081     0.005394
NI575   NI        0.539695    0.069795    0.257189     0.004307
NI576   NI        0.559996    0.115876    0.230810     0.004307
NI577   NI        0.597402    0.116524    0.267183     0.004307
NI578   NI        0.643732    0.101066    0.253075     0.004307
NI579   NI        0.671711    0.115774    0.192840     0.004307
NI580   NI        0.661186    0.148818    0.250174     0.004307
NI581   NI        0.155559    0.193056    0.266427     0.004307
NI582   NI        0.189667    0.153941    0.267547     0.004307
NI583   NI        0.191455    0.189868    0.229881     0.004307
NI584   NI        0.226517    0.117422    0.194201     0.004307
NI585   NI        0.212256    0.188124    0.294960     0.004307
NI586   NI        0.273453    0.140398    0.228321     0.004307
PD587   PD        0.265122    0.189641    0.229239     0.005394
PD588   PD        0.301338    0.155204    0.231894     0.005394
PD589   PD        0.301681    0.190537    0.268248     0.005394
PD590   PD        0.338001    0.152731    0.267393     0.005394
NI591   NI        0.317768    0.191316    0.238420     0.004307
NI592   NI        0.364073    0.130170    0.229680     0.004307
NI593   NI        0.343130    0.160604    0.265571     0.004307
NI594   NI        0.386965    0.160287    0.283198     0.004307
NI595   NI        0.436389    0.185564    0.262800     0.004307
PD596   PD        0.450549    0.153808    0.228795     0.005394
PD597   PD        0.448668    0.189998    0.267032     0.005394
PD598   PD        0.486870    0.153806    0.266727     0.005394
PD599   PD        0.486041    0.191125    0.229245     0.005394
PD600   PD        0.524463    0.153495    0.230385     0.005394
PD601   PD        0.522789    0.190345    0.267352     0.005394
PD602   PD        0.560226    0.152959    0.265523     0.005394
PD603   PD        0.560520    0.189835    0.230026     0.005394
PD604   PD        0.595973    0.152207    0.230045     0.005394
PD605   PD        0.597174    0.190952    0.269058     0.005394
NI606   NI        0.643821    0.127739    0.295273     0.004307
NI607   NI        0.633212    0.191027    0.231809     0.004307
NI608   NI        0.702490    0.152002    0.195683     0.004307
NI609   NI        0.704756    0.182855    0.283098     0.004307
NI610   NI        0.707855    0.152311    0.266936     0.004307
NI611   NI        0.707595    0.190946    0.230000     0.004307
NI612   NI        0.741593    0.190120    0.271850     0.004307
NI613   NI        0.078912    0.266113    0.267195     0.004307
NI614   NI        0.117876    0.225949    0.267056     0.004307
NI615   NI        0.116154    0.265672    0.230195     0.004307
NI616   NI        0.153844    0.230563    0.229565     0.004307
NI617   NI        0.152756    0.266053    0.266875     0.004307
PD618   PD        0.190696    0.227529    0.268190     0.005394
NI619   NI        0.178696    0.303740    0.217601     0.004307
NI620   NI        0.227083    0.226847    0.229772     0.004307
PD621   PD        0.227279    0.265383    0.265454     0.005394
PD622   PD        0.264210    0.227861    0.265061     0.005394
PD623   PD        0.264581    0.264616    0.230188     0.005394
PD624   PD        0.300622    0.225822    0.229252     0.005394
PD625   PD        0.300104    0.263900    0.266006     0.005394
PD626   PD        0.337434    0.227556    0.267323     0.005394
PD627   PD        0.337836    0.264833    0.227893     0.005394
PD628   PD        0.374175    0.227750    0.229960     0.005394
PD629   PD        0.374652    0.264946    0.266283     0.005394
PD630   PD        0.411785    0.227392    0.266760     0.005394
PD631   PD        0.410192    0.263324    0.230202     0.005394
PD632   PD        0.448535    0.227208    0.230439     0.005394
PD633   PD        0.446964    0.263915    0.266255     0.005394
PD634   PD        0.516934    0.233371    0.295386     0.005394
NI635   NI        0.492616    0.258927    0.206380     0.004307
PD636   PD        0.522952    0.226809    0.229360     0.005394
NI637   NI        0.512957    0.254922    0.250911     0.004307
PD638   PD        0.559627    0.228281    0.268638     0.005394
PD639   PD        0.558997    0.262429    0.230419     0.005394
PD640   PD        0.597004    0.226844    0.231184     0.005394
PD641   PD        0.596927    0.263127    0.267537     0.005394
PD642   PD        0.633404    0.227075    0.266868     0.005394
PD643   PD        0.632854    0.264111    0.230569     0.005394
PD644   PD        0.669576    0.227447    0.231880     0.005394
PD645   PD        0.670355    0.264275    0.269576     0.005394
PD646   PD        0.706811    0.228721    0.267277     0.005394
PD647   PD        0.705754    0.263375    0.230435     0.005394
NI648   NI        0.751711    0.260727    0.225405     0.004307
NI649   NI        0.744286    0.263596    0.268373     0.004307
NI650   NI        0.779241    0.226092    0.269140     0.004307
NI651   NI        0.805111    0.292652    0.246480     0.004307
NI652   NI        0.814851    0.261720    0.269068     0.004307
NI653   NI        0.078354    0.339503    0.268028     0.004307
NI654   NI        0.077382    0.301365    0.231208     0.004307
NI655   NI        0.113330    0.338789    0.230620     0.004307
NI656   NI        0.131226    0.302155    0.235126     0.004307
NI657   NI        0.114445    0.375098    0.267133     0.004307
PD658   PD        0.189937    0.301520    0.267286     0.005394
PD659   PD        0.190266    0.339253    0.230435     0.005394
PD660   PD        0.227132    0.301651    0.229083     0.005394
PD661   PD        0.226592    0.340106    0.265895     0.005394
PD662   PD        0.264048    0.301924    0.265470     0.005394
PD663   PD        0.262068    0.336970    0.229574     0.005394
PD664   PD        0.299465    0.303197    0.228220     0.005394
NI665   NI        0.284849    0.331731    0.251520     0.004307
PD666   PD        0.337667    0.301562    0.266195     0.005394
PD667   PD        0.335321    0.338602    0.229244     0.005394
PD668   PD        0.375032    0.300563    0.229070     0.005394
PD669   PD        0.374464    0.337097    0.264507     0.005394
PD670   PD        0.409885    0.300249    0.265863     0.005394
PD671   PD        0.410803    0.340027    0.229636     0.005394
PD672   PD        0.447626    0.300162    0.230422     0.005394
PD673   PD        0.415378    0.344966    0.239871     0.005394
PD674   PD        0.485494    0.299338    0.266755     0.005394
PD675   PD        0.485356    0.337172    0.228940     0.005394
PD676   PD        0.535114    0.290486    0.209281     0.005394
PD677   PD        0.519634    0.324518    0.292066     0.005394
PD678   PD        0.560522    0.299397    0.266536     0.005394
PD679   PD        0.560746    0.336609    0.228477     0.005394
PD680   PD        0.596154    0.299933    0.230255     0.005394
PD681   PD        0.596116    0.338551    0.264597     0.005394
PD682   PD        0.633675    0.300003    0.267412     0.005394
PD683   PD        0.632942    0.335894    0.230176     0.005394
PD684   PD        0.669114    0.300355    0.232310     0.005394
PD685   PD        0.670936    0.337101    0.269187     0.005394
NI686   NI        0.731962    0.315394    0.263265     0.004307
PD687   PD        0.705031    0.337662    0.231642     0.005394
NI688   NI        0.754048    0.295940    0.257463     0.004307
NI689   NI        0.761577    0.310488    0.269297     0.004307
NI690   NI        0.781410    0.299623    0.269286     0.004307
NI691   NI        0.781170    0.336302    0.229856     0.004307
NI692   NI        0.818448    0.336948    0.267477     0.004307
NI693   NI        0.041357    0.367512    0.273051     0.004307
NI694   NI        0.079587    0.375416    0.231572     0.004307
NI695   NI        0.042908    0.376483    0.268283     0.004307
NI696   NI        0.102030    0.358506    0.277293     0.004307
NI697   NI        0.115690    0.410373    0.231362     0.004307
PD698   PD        0.152253    0.374821    0.230720     0.005394
NI699   NI        0.148466    0.430326    0.290290     0.004307
PD700   PD        0.189932    0.375289    0.265662     0.005394
NI701   NI        0.192981    0.394806    0.205376     0.004307
PD702   PD        0.227553    0.375778    0.228930     0.005394
PD703   PD        0.227043    0.413808    0.267481     0.005394
PD704   PD        0.262991    0.375171    0.266516     0.005394
PD705   PD        0.262933    0.413179    0.227784     0.005394
PD706   PD        0.300159    0.374166    0.228430     0.005394
PD707   PD        0.300192    0.412499    0.266137     0.005394
PD708   PD        0.339077    0.374197    0.264806     0.005394
PD709   PD        0.337815    0.413478    0.229260     0.005394
PD710   PD        0.373935    0.373741    0.228094     0.005394
PD711   PD        0.388776    0.384212    0.251134     0.005394
PD712   PD        0.411023    0.375408    0.266492     0.005394
PD713   PD        0.411139    0.410882    0.228894     0.005394
PD714   PD        0.441697    0.376262    0.247093     0.005394
PD715   PD        0.449434    0.410788    0.265436     0.005394
PD716   PD        0.485765    0.373396    0.264483     0.005394
PD717   PD        0.486463    0.410956    0.228571     0.005394
PD718   PD        0.522776    0.374220    0.228659     0.005394
PD719   PD        0.521961    0.409247    0.263852     0.005394
PD720   PD        0.560007    0.374482    0.264926     0.005394
PD721   PD        0.558157    0.409649    0.226538     0.005394
PD722   PD        0.595721    0.372591    0.228776     0.005394
PD723   PD        0.595334    0.409755    0.266524     0.005394
PD724   PD        0.624345    0.389800    0.277217     0.005394
PD725   PD        0.632467    0.411293    0.228969     0.005394
PD726   PD        0.670274    0.374162    0.231458     0.005394
PD727   PD        0.669926    0.412299    0.266597     0.005394
PD728   PD        0.705804    0.373908    0.267262     0.005394
NI729   NI        0.729181    0.397002    0.223630     0.004307
PD730   PD        0.743336    0.372719    0.232815     0.005394
PD731   PD        0.743951    0.410777    0.268399     0.005394
PD732   PD        0.780933    0.374006    0.267924     0.005394
NI733   NI        0.779211    0.410706    0.231642     0.004307
NI734   NI        0.815887    0.376098    0.232508     0.004307
NI735   NI        0.816279    0.410395    0.268094     0.004307
NI736   NI        0.854162    0.375427    0.266528     0.004307
NI737   NI        0.065515    0.455354    0.259166     0.004307
NI738   NI        0.067760    0.422382    0.221011     0.004307
NI739   NI        0.079977    0.489893    0.273495     0.004307
NI740   NI        0.117208    0.453082    0.265893     0.004307
NI741   NI        0.103522    0.509013    0.223169     0.004307
PD742   PD        0.151462    0.450843    0.230728     0.005394
PD743   PD        0.153708    0.487318    0.269097     0.005394
PD744   PD        0.190168    0.450009    0.267316     0.005394
PD745   PD        0.188453    0.485428    0.231076     0.005394
PD746   PD        0.226601    0.449400    0.229649     0.005394
NI747   NI        0.204713    0.493721    0.286802     0.004307
PD748   PD        0.264060    0.448178    0.265744     0.005394
PD749   PD        0.264379    0.486472    0.229851     0.005394
PD750   PD        0.299525    0.448758    0.228875     0.005394
PD751   PD        0.301820    0.484622    0.265944     0.005394
PD752   PD        0.337273    0.448199    0.263496     0.005394
PD753   PD        0.336579    0.485712    0.229048     0.005394
PD754   PD        0.374625    0.448421    0.227759     0.005394
PD755   PD        0.373920    0.484740    0.264377     0.005394
PD756   PD        0.411125    0.448046    0.265352     0.005394
PD757   PD        0.411319    0.485495    0.227965     0.005394
PD758   PD        0.418143    0.443441    0.196315     0.005394
PD759   PD        0.447949    0.484546    0.266240     0.005394
PD760   PD        0.490453    0.453899    0.283475     0.005394
PD761   PD        0.494532    0.505359    0.240188     0.005394
PD762   PD        0.552434    0.442616    0.199707     0.005394
PD763   PD        0.524150    0.485834    0.264869     0.005394
PD764   PD        0.560831    0.448540    0.268354     0.005394
PD765   PD        0.560154    0.484138    0.228317     0.005394
PD766   PD        0.595352    0.447535    0.227330     0.005394
PD767   PD        0.581070    0.474210    0.238363     0.005394
PD768   PD        0.631985    0.448669    0.266696     0.005394
PD769   PD        0.632325    0.483082    0.227083     0.005394
PD770   PD        0.669439    0.447080    0.227898     0.005394
PD771   PD        0.667816    0.483777    0.266671     0.005394
NI772   NI        0.737779    0.443339    0.234856     0.004307
PD773   PD        0.707678    0.483195    0.227284     0.005394
PD774   PD        0.745330    0.446825    0.230046     0.005394
PD775   PD        0.743348    0.485005    0.267807     0.005394
NI776   NI        0.743080    0.455436    0.237398     0.004307
NI777   NI        0.779610    0.484655    0.232351     0.004307
NI778   NI        0.810615    0.433494    0.226374     0.004307
NI779   NI        0.819401    0.514483    0.237426     0.004307
NI780   NI        0.854163    0.448782    0.267373     0.004307
NI781   NI        0.043901    0.523509    0.269588     0.004307
NI782   NI        0.078329    0.522738    0.231714     0.004307
NI783   NI        0.083017    0.561044    0.270458     0.004307
PD784   PD        0.116119    0.523402    0.268011     0.005394
NI785   NI        0.115279    0.560306    0.231175     0.004307
NI786   NI        0.147106    0.556792    0.228379     0.004307
NI787   NI        0.153366    0.562099    0.269491     0.004307
PD788   PD        0.185806    0.524667    0.266177     0.005394
PD789   PD        0.189303    0.560621    0.231841     0.005394
NI790   NI        0.189388    0.530766    0.227523     0.004307
PD791   PD        0.226875    0.559567    0.268619     0.005394
PD792   PD        0.263698    0.523691    0.266927     0.005394
PD793   PD        0.264555    0.559782    0.229917     0.005394
PD794   PD        0.301396    0.523607    0.229027     0.005394
PD795   PD        0.273242    0.522696    0.268503     0.005394
PD796   PD        0.338937    0.522551    0.266613     0.005394
PD797   PD        0.337444    0.558992    0.229374     0.005394
PD798   PD        0.373838    0.521048    0.228111     0.005394
PD799   PD        0.375482    0.558595    0.266313     0.005394
PD800   PD        0.410909    0.522067    0.264888     0.005394
PD801   PD        0.412983    0.557506    0.228983     0.005394
PD802   PD        0.448305    0.522674    0.228704     0.005394
PD803   PD        0.449219    0.555793    0.263670     0.005394
PD804   PD        0.485883    0.521375    0.266716     0.005394
PD805   PD        0.485552    0.557996    0.228113     0.005394
PD806   PD        0.512151    0.534023    0.201838     0.005394
PD807   PD        0.528402    0.547506    0.283301     0.005394
PD808   PD        0.575335    0.534002    0.272059     0.005394
PD809   PD        0.560346    0.558381    0.228660     0.005394
PD810   PD        0.595329    0.519944    0.229773     0.005394
PD811   PD        0.616270    0.561033    0.292040     0.005394
PD812   PD        0.632969    0.519276    0.265776     0.005394
NI813   NI        0.613249    0.561606    0.244185     0.004307
PD814   PD        0.706412    0.517972    0.262861     0.005394
PD815   PD        0.669182    0.556953    0.266138     0.005394
PD816   PD        0.706527    0.523173    0.271015     0.005394
PD817   PD        0.704869    0.556146    0.228954     0.005394
PD818   PD        0.739789    0.519802    0.229298     0.005394
PD819   PD        0.743632    0.556444    0.267756     0.005394
NI820   NI        0.779241    0.518531    0.268891     0.004307
NI821   NI        0.815166    0.521483    0.232416     0.004307
NI822   NI        0.777717    0.519761    0.195903     0.004307
NI823   NI        0.848909    0.592518    0.267515     0.004307
NI824   NI        0.854030    0.522004    0.268642     0.004307
NI825   NI        0.085095    0.629872    0.268715     0.004307
NI826   NI        0.121289    0.596723    0.277848     0.004307
NI827   NI        0.115865    0.634418    0.231806     0.004307
NI828   NI        0.152568    0.595063    0.239880     0.004307
NI829   NI        0.152594    0.633972    0.269137     0.004307
NI830   NI        0.220779    0.587288    0.253276     0.004307
NI831   NI        0.191045    0.631401    0.232094     0.004307
PD832   PD        0.226891    0.596356    0.229835     0.005394
NI833   NI        0.227941    0.634371    0.269617     0.004307
PD834   PD        0.264378    0.597635    0.267924     0.005394
PD835   PD        0.265776    0.629405    0.231552     0.005394
PD836   PD        0.300114    0.595908    0.228613     0.005394
PD837   PD        0.301107    0.632463    0.267199     0.005394
PD838   PD        0.352963    0.605243    0.267749     0.005394
PD839   PD        0.335867    0.633590    0.229985     0.005394
NI840   NI        0.376168    0.630605    0.201004     0.004307
NI841   NI        0.371989    0.646135    0.260485     0.004307
PD842   PD        0.410353    0.594507    0.266285     0.005394
PD843   PD        0.411269    0.631832    0.230692     0.005394
PD844   PD        0.448026    0.596316    0.229449     0.005394
PD845   PD        0.448547    0.631266    0.266692     0.005394
PD846   PD        0.486051    0.593597    0.266589     0.005394
PD847   PD        0.486169    0.631191    0.229991     0.005394
PD848   PD        0.521135    0.595410    0.229247     0.005394
PD849   PD        0.516970    0.656634    0.280220     0.005394
PD850   PD        0.536428    0.615478    0.260255     0.005394
PD851   PD        0.559191    0.631571    0.229391     0.005394
PD852   PD        0.597735    0.593002    0.227137     0.005394
PD853   PD        0.599309    0.632391    0.265601     0.005394
PD854   PD        0.633669    0.594236    0.265215     0.005394
NI855   NI        0.600774    0.659333    0.227865     0.004307
PD856   PD        0.670412    0.591563    0.229121     0.005394
NI857   NI        0.668503    0.630709    0.274722     0.004307
NI858   NI        0.684537    0.603482    0.257490     0.004307
NI859   NI        0.743658    0.668905    0.231727     0.004307
NI860   NI        0.743190    0.593250    0.230803     0.004307
NI861   NI        0.742483    0.631396    0.269278     0.004307
NI862   NI        0.776973    0.594899    0.270183     0.004307
NI863   NI        0.776857    0.629103    0.234405     0.004307
NI864   NI        0.812091    0.630643    0.266508     0.004307
NI865   NI        0.116092    0.669720    0.268983     0.004307
NI866   NI        0.154519    0.669631    0.232097     0.004307
NI867   NI        0.153310    0.707013    0.267698     0.004307
NI868   NI        0.190661    0.669551    0.268485     0.004307
NI869   NI        0.191059    0.707757    0.232621     0.004307
NI870   NI        0.225228    0.670455    0.233124     0.004307
NI871   NI        0.227773    0.706673    0.269250     0.004307
PD872   PD        0.265037    0.670883    0.268869     0.005394
NI873   NI        0.264061    0.706781    0.231737     0.004307
PD874   PD        0.301985    0.669831    0.230660     0.005394
PD875   PD        0.302669    0.706606    0.268280     0.005394
PD876   PD        0.337244    0.669392    0.267313     0.005394
PD877   PD        0.338931    0.706140    0.231797     0.005394
PD878   PD        0.376394    0.669974    0.230838     0.005394
PD879   PD        0.377686    0.706932    0.268382     0.005394
PD880   PD        0.411692    0.671189    0.267537     0.005394
PD881   PD        0.412346    0.705992    0.230104     0.005394
NI882   NI        0.457122    0.687155    0.218676     0.004307
PD883   PD        0.449102    0.705645    0.266316     0.005394
PD884   PD        0.487870    0.668636    0.267431     0.005394
PD885   PD        0.486350    0.704550    0.231018     0.005394
PD886   PD        0.523447    0.670035    0.230428     0.005394
PD887   PD        0.522000    0.707091    0.266142     0.005394
PD888   PD        0.556926    0.667674    0.267680     0.005394
PD889   PD        0.557638    0.707006    0.229794     0.005394
PD890   PD        0.595153    0.666808    0.229745     0.005394
PD891   PD        0.592714    0.704478    0.267819     0.005394
PD892   PD        0.629754    0.667670    0.266392     0.005394
NI893   NI        0.632806    0.705231    0.229483     0.004307
NI894   NI        0.669933    0.667393    0.233720     0.004307
NI895   NI        0.668327    0.701284    0.269408     0.004307
NI896   NI        0.707483    0.686661    0.259479     0.004307
NI897   NI        0.706404    0.701769    0.213399     0.004307
NI898   NI        0.720697    0.678203    0.220975     0.004307
NI899   NI        0.716438    0.711700    0.258561     0.004307
NI900   NI        0.758856    0.680363    0.256865     0.004307
NI901   NI        0.189774    0.742377    0.270776     0.004307
NI902   NI        0.189102    0.750367    0.225392     0.004307
NI903   NI        0.224632    0.779286    0.269456     0.004307
NI904   NI        0.260624    0.771877    0.237819     0.004307
NI905   NI        0.263434    0.780645    0.233545     0.004307
NI906   NI        0.300773    0.742696    0.231439     0.004307
NI907   NI        0.303473    0.780212    0.269882     0.004307
NI908   NI        0.347846    0.778397    0.258233     0.004307
NI909   NI        0.337402    0.779928    0.229801     0.004307
PD910   PD        0.375201    0.743696    0.229580     0.005394
NI911   NI        0.376222    0.779494    0.266074     0.004307
NI912   NI        0.377897    0.739788    0.238173     0.004307
NI913   NI        0.388161    0.776497    0.264548     0.004307
NI914   NI        0.433060    0.753636    0.271307     0.004307
NI915   NI        0.452503    0.801138    0.283237     0.004307
NI916   NI        0.462155    0.758463    0.256754     0.004307
NI917   NI        0.512823    0.784947    0.226272     0.004307
NI918   NI        0.516489    0.737721    0.231122     0.004307
NI919   NI        0.543197    0.791133    0.289535     0.004307
NI920   NI        0.547547    0.774957    0.285654     0.004307
NI921   NI        0.561593    0.778687    0.232874     0.004307
NI922   NI        0.597244    0.743459    0.230605     0.004307
NI923   NI        0.597346    0.777359    0.269947     0.004307
NI924   NI        0.630802    0.738064    0.268667     0.004307
NI925   NI        0.634244    0.776219    0.233259     0.004307
NI926   NI        0.670815    0.771751    0.199373     0.004307
NI927   NI        0.664049    0.774348    0.271797     0.004307
NI928   NI        0.703944    0.741625    0.272552     0.004307
NI929   NI        0.262713    0.814758    0.268455     0.004307
NI930   NI        0.337311    0.815435    0.268279     0.004307
NI931   NI        0.398758    0.829884    0.211621     0.004307
NI932   NI        0.376591    0.852974    0.270876     0.004307
NI933   NI        0.443616    0.843894    0.264883     0.004307
NI934   NI        0.431781    0.804919    0.256977     0.004307
NI935   NI        0.449818    0.846368    0.273710     0.004307
NI936   NI        0.487571    0.816605    0.269552     0.004307
NI937   NI        0.522031    0.808518    0.232533     0.004307
NI938   NI        0.525391    0.845499    0.267463     0.004307
NI939   NI        0.564011    0.814981    0.267499     0.004307
NI940   NI        0.671457    0.851105    0.270233     0.004307
NI941   NI        0.305355    0.047911    0.341974     0.004307
NI942   NI        0.338173    0.045624    0.305923     0.004307
NI943   NI        0.375828    0.045768    0.341736     0.004307
NI944   NI        0.412346    0.010045    0.343637     0.004307
NI945   NI        0.449159    0.043206    0.341255     0.004307
NI946   NI        0.485758    0.043622    0.306581     0.004307
NI947   NI        0.523466    0.043331    0.340949     0.004307
NI948   NI        0.536536    0.032607    0.292835     0.004307
NI949   NI        0.597398    0.040847    0.341630     0.004307
NI950   NI        0.160907    0.121784    0.294586     0.004307
NI951   NI        0.216096    0.117171    0.325219     0.004307
NI952   NI        0.293787    0.096705    0.358569     0.004307
NI953   NI        0.264326    0.117997    0.307081     0.004307
NI954   NI        0.301813    0.082328    0.305796     0.004307
NI955   NI        0.312427    0.115003    0.339599     0.004307
NI956   NI        0.339054    0.082094    0.342227     0.004307
PD957   PD        0.338728    0.117148    0.303509     0.005394
PD958   PD        0.376104    0.081560    0.306466     0.005394
PD959   PD        0.374796    0.117899    0.341022     0.005394
PD960   PD        0.413537    0.080592    0.342126     0.005394
PD961   PD        0.411093    0.117755    0.304709     0.005394
PD962   PD        0.449695    0.080411    0.304701     0.005394
PD963   PD        0.449373    0.116509    0.342453     0.005394
PD964   PD        0.486490    0.079346    0.342112     0.005394
NI965   NI        0.497499    0.105074    0.280876     0.004307
NI966   NI        0.523156    0.080433    0.304554     0.004307
PD967   PD        0.523416    0.115900    0.342068     0.005394
NI968   NI        0.531756    0.064455    0.330651     0.004307
NI969   NI        0.549803    0.111708    0.287196     0.004307
NI970   NI        0.596071    0.078409    0.306219     0.004307
PD971   PD        0.598065    0.115368    0.341013     0.005394
NI972   NI        0.632760    0.079176    0.340847     0.004307
NI973   NI        0.640392    0.108411    0.339761     0.004307
NI974   NI        0.633832    0.115308    0.304902     0.004307
NI975   NI        0.681285    0.097190    0.308204     0.004307
NI976   NI        0.115520    0.193523    0.307097     0.004307
NI977   NI        0.124375    0.188041    0.303044     0.004307
NI978   NI        0.153637    0.191170    0.340595     0.004307
NI979   NI        0.191365    0.156953    0.340885     0.004307
PD980   PD        0.189371    0.191867    0.303053     0.005394
NI981   NI        0.226224    0.154161    0.305637     0.004307
PD982   PD        0.227658    0.190722    0.340163     0.005394
NI983   NI        0.257218    0.140221    0.337402     0.004307
PD984   PD        0.264979    0.190855    0.305161     0.005394
NI985   NI        0.304099    0.119714    0.343315     0.004307
PD986   PD        0.266133    0.193409    0.378879     0.005394
PD987   PD        0.339786    0.156377    0.342382     0.005394
NI988   NI        0.323378    0.183388    0.289352     0.004307
PD989   PD        0.375392    0.153717    0.305644     0.005394
PD990   PD        0.377352    0.190085    0.340416     0.005394
PD991   PD        0.414304    0.154798    0.340751     0.005394
PD992   PD        0.412691    0.190515    0.303112     0.005394
PD993   PD        0.450271    0.152819    0.302007     0.005394
PD994   PD        0.450306    0.190997    0.343175     0.005394
PD995   PD        0.486953    0.153123    0.340680     0.005394
PD996   PD        0.496400    0.187668    0.305200     0.005394
PD997   PD        0.523592    0.151604    0.305538     0.005394
PD998   PD        0.487069    0.189771    0.304084     0.005394
PD999   PD        0.562904    0.153348    0.341406     0.005394
PD1000   PD        0.559909    0.189962    0.302881     0.005394
NI1001   NI        0.570371    0.176652    0.312971     0.004307
PD1002   PD        0.597115    0.191564    0.340953     0.005394
NI1003   NI        0.654570    0.154321    0.353797     0.004307
PD1004   PD        0.633224    0.190022    0.304788     0.005394
NI1005   NI        0.670262    0.153186    0.305992     0.004307
NI1006   NI        0.698109    0.174363    0.342370     0.004307
NI1007   NI        0.706787    0.153464    0.342986     0.004307
NI1008   NI        0.734860    0.186865    0.321407     0.004307
NI1009   NI        0.745707    0.152947    0.304317     0.004307
NI1010   NI        0.745319    0.188083    0.341948     0.004307
NI1011   NI        0.780925    0.189356    0.304339     0.004307
NI1012   NI        0.079639    0.263977    0.342083     0.004307
NI1013   NI        0.140713    0.216577    0.333603     0.004307
NI1014   NI        0.117205    0.264055    0.302838     0.004307
PD1015   PD        0.153618    0.226788    0.304561     0.005394
PD1016   PD        0.154127    0.264885    0.341496     0.005394
PD1017   PD        0.188718    0.228108    0.340249     0.005394
NI1018   NI        0.198850    0.278335    0.327946     0.004307
NI1019   NI        0.253709    0.211636    0.294758     0.004307
PD1020   PD        0.226955    0.264653    0.338731     0.005394
PD1021   PD        0.265707    0.227757    0.341039     0.005394
PD1022   PD        0.264455    0.263683    0.303440     0.005394
PD1023   PD        0.302591    0.227718    0.304224     0.005394
PD1024   PD        0.302585    0.264132    0.340039     0.005394
PD1025   PD        0.338363    0.226959    0.339275     0.005394
PD1026   PD        0.339358    0.265575    0.303584     0.005394
PD1027   PD        0.374340    0.227304    0.302775     0.005394
PD1028   PD        0.380454    0.267807    0.339915     0.005394
PD1029   PD        0.412866    0.227272    0.340486     0.005394
PD1030   PD        0.410345    0.263378    0.303855     0.005394
PD1031   PD        0.445271    0.214296    0.316355     0.005394
PD1032   PD        0.449297    0.262400    0.341389     0.005394
PD1033   PD        0.486414    0.225123    0.339884     0.005394
PD1034   PD        0.478336    0.251802    0.319244     0.005394
PD1035   PD        0.523560    0.228212    0.305713     0.005394
PD1036   PD        0.523253    0.263696    0.341454     0.005394
PD1037   PD        0.560457    0.226111    0.339120     0.005394
PD1038   PD        0.561016    0.262943    0.303838     0.005394
PD1039   PD        0.596843    0.226738    0.305484     0.005394
NI1040   NI        0.607759    0.241205    0.354440     0.004307
PD1041   PD        0.634589    0.225244    0.340790     0.005394
PD1042   PD        0.633963    0.264310    0.306510     0.005394
NI1043   NI        0.693465    0.219624    0.318101     0.004307
PD1044   PD        0.671636    0.263172    0.342051     0.005394
PD1045   PD        0.708345    0.224734    0.341945     0.005394
PD1046   PD        0.708608    0.263746    0.305715     0.005394
NI1047   NI        0.743543    0.225499    0.305302     0.004307
PD1048   PD        0.746195    0.262286    0.342390     0.005394
NI1049   NI        0.782861    0.225956    0.341548     0.004307
PD1050   PD        0.781297    0.262612    0.305657     0.005394
NI1051   NI        0.817901    0.263462    0.341664     0.004307
NI1052   NI        0.042772    0.265163    0.303037     0.004307
NI1053   NI        0.041221    0.337134    0.306658     0.004307
NI1054   NI        0.081115    0.301261    0.304483     0.004307
NI1055   NI        0.067405    0.333313    0.357979     0.004307
PD1056   PD        0.116543    0.299394    0.342218     0.005394
NI1057   NI        0.106564    0.349930    0.328480     0.004307
NI1058   NI        0.126762    0.314053    0.289881     0.004307
PD1059   PD        0.153837    0.337183    0.341007     0.005394
PD1060   PD        0.191120    0.301499    0.341198     0.005394
PD1061   PD        0.191010    0.337512    0.303408     0.005394
PD1062   PD        0.228810    0.301330    0.303198     0.005394
PD1063   PD        0.227949    0.337484    0.338547     0.005394
PD1064   PD        0.264565    0.299388    0.340083     0.005394
NI1065   NI        0.256192    0.312672    0.289995     0.004307
PD1066   PD        0.301650    0.300823    0.301689     0.005394
PD1067   PD        0.299538    0.335927    0.338711     0.005394
PD1068   PD        0.338595    0.300467    0.339269     0.005394
PD1069   PD        0.337763    0.337159    0.302721     0.005394
PD1070   PD        0.375039    0.302782    0.302846     0.005394
PD1071   PD        0.374732    0.335800    0.340564     0.005394
PD1072   PD        0.411818    0.302353    0.341718     0.005394
PD1073   PD        0.412165    0.338129    0.301918     0.005394
PD1074   PD        0.448304    0.301435    0.303930     0.005394
PD1075   PD        0.447818    0.336925    0.339394     0.005394
PD1076   PD        0.457089    0.283195    0.350665     0.005394
PD1077   PD        0.486391    0.337129    0.304132     0.005394
PD1078   PD        0.514456    0.275551    0.293982     0.005394
PD1079   PD        0.522315    0.338392    0.341738     0.005394
PD1080   PD        0.573963    0.309655    0.379499     0.005394
PD1081   PD        0.563768    0.341034    0.305558     0.005394
PD1082   PD        0.597254    0.301022    0.304238     0.005394
PD1083   PD        0.597500    0.335876    0.341315     0.005394
PD1084   PD        0.615372    0.292026    0.353573     0.005394
PD1085   PD        0.633973    0.337355    0.304338     0.005394
PD1086   PD        0.672135    0.300764    0.304262     0.005394
PD1087   PD        0.681797    0.347965    0.320314     0.005394
PD1088   PD        0.709015    0.299866    0.342256     0.005394
PD1089   PD        0.709728    0.335837    0.304417     0.005394
PD1090   PD        0.743412    0.300389    0.305588     0.005394
PD1091   PD        0.745051    0.335579    0.339729     0.005394
PD1092   PD        0.780674    0.299798    0.342004     0.005394
PD1093   PD        0.781871    0.335981    0.305063     0.005394
NI1094   NI        0.819200    0.302394    0.305092     0.004307
NI1095   NI        0.824745    0.315515    0.328867     0.004307
NI1096   NI        0.854655    0.299249    0.341189     0.004307
NI1097   NI        0.853408    0.338496    0.308016     0.004307
NI1098   NI        0.042090    0.376827    0.342772     0.004307
NI1099   NI        0.042212    0.412021    0.304782     0.004307
NI1100   NI        0.059900    0.368421    0.319752     0.004307
NI1101   NI        0.084781    0.413866    0.340251     0.004307
PD1102   PD        0.118013    0.375567    0.344937     0.005394
PD1103   PD        0.117537    0.413888    0.306793     0.005394
NI1104   NI        0.131693    0.385615    0.271149     0.004307
PD1105   PD        0.154687    0.413448    0.340952     0.005394
PD1106   PD        0.192872    0.372591    0.340852     0.005394
PD1107   PD        0.189861    0.413151    0.303735     0.005394
PD1108   PD        0.228948    0.376445    0.306147     0.005394
PD1109   PD        0.227428    0.413537    0.340569     0.005394
PD1110   PD        0.247054    0.368834    0.356268     0.005394
PD1111   PD        0.263340    0.412700    0.303144     0.005394
PD1112   PD        0.301330    0.376717    0.303567     0.005394
PD1113   PD        0.302102    0.410633    0.340458     0.005394
PD1114   PD        0.338201    0.374035    0.341498     0.005394
PD1115   PD        0.338476    0.410726    0.300767     0.005394
PD1116   PD        0.373528    0.373483    0.304071     0.005394
PD1117   PD        0.375498    0.411359    0.339359     0.005394
PD1118   PD        0.411906    0.373580    0.340604     0.005394
PD1119   PD        0.411078    0.412007    0.301442     0.005394
PD1120   PD        0.449912    0.374970    0.302611     0.005394
PD1121   PD        0.449002    0.409864    0.339683     0.005394
PD1122   PD        0.486699    0.374522    0.339137     0.005394
PD1123   PD        0.482050    0.409550    0.307339     0.005394
PD1124   PD        0.521598    0.373441    0.303489     0.005394
PD1125   PD        0.520304    0.408053    0.341864     0.005394
PD1126   PD        0.559961    0.374924    0.340922     0.005394
PD1127   PD        0.559592    0.412062    0.301944     0.005394
PD1128   PD        0.597175    0.375468    0.302538     0.005394
PD1129   PD        0.595285    0.409606    0.339491     0.005394
PD1130   PD        0.607984    0.380328    0.326608     0.005394
PD1131   PD        0.632489    0.411057    0.301570     0.005394
NI1132   NI        0.665656    0.349343    0.317782     0.004307
PD1133   PD        0.694189    0.394564    0.333891     0.005394
PD1134   PD        0.706692    0.372404    0.340640     0.005394
PD1135   PD        0.706478    0.410107    0.304557     0.005394
PD1136   PD        0.743761    0.373621    0.304150     0.005394
PD1137   PD        0.744361    0.409503    0.341570     0.005394
PD1138   PD        0.781220    0.373119    0.341463     0.005394
PD1139   PD        0.779673    0.409934    0.304698     0.005394
NI1140   NI        0.852995    0.377890    0.277830     0.004307
NI1141   NI        0.816017    0.411182    0.341127     0.004307
NI1142   NI        0.853970    0.377245    0.342303     0.004307
NI1143   NI        0.852586    0.409841    0.304788     0.004307
NI1144   NI        0.045158    0.448116    0.344330     0.004307
NI1145   NI        0.043907    0.487008    0.307992     0.004307
NI1146   NI        0.098765    0.441884    0.292777     0.004307
PD1147   PD        0.082580    0.486167    0.343467     0.005394
NI1148   NI        0.116469    0.441907    0.337860     0.004307
PD1149   PD        0.119475    0.486983    0.305344     0.005394
PD1150   PD        0.153384    0.448620    0.305251     0.005394
NI1151   NI        0.132980    0.462428    0.350034     0.004307
PD1152   PD        0.190229    0.448498    0.340841     0.005394
PD1153   PD        0.190532    0.486186    0.302951     0.005394
PD1154   PD        0.227211    0.450625    0.303504     0.005394
PD1155   PD        0.229407    0.481975    0.342136     0.005394
PD1156   PD        0.265226    0.449792    0.340342     0.005394
PD1157   PD        0.264302    0.484806    0.301967     0.005394
PD1158   PD        0.302676    0.448204    0.303474     0.005394
PD1159   PD        0.301611    0.482453    0.339203     0.005394
PD1160   PD        0.339900    0.448174    0.339152     0.005394
PD1161   PD        0.339149    0.485784    0.302414     0.005394
PD1162   PD        0.374306    0.448116    0.300685     0.005394
PD1163   PD        0.374049    0.485320    0.338200     0.005394
PD1164   PD        0.413468    0.446349    0.337623     0.005394
PD1165   PD        0.412158    0.485237    0.303013     0.005394
PD1166   PD        0.447859    0.447651    0.301804     0.005394
PD1167   PD        0.448150    0.483005    0.338810     0.005394
PD1168   PD        0.485443    0.448390    0.339612     0.005394
PD1169   PD        0.470471    0.510420    0.302790     0.005394
PD1170   PD        0.522781    0.448061    0.303625     0.005394
PD1171   PD        0.522883    0.484850    0.339021     0.005394
PD1172   PD        0.559449    0.444680    0.340199     0.005394
PD1173   PD        0.559517    0.484355    0.304254     0.005394
PD1174   PD        0.597531    0.447717    0.300979     0.005394
PD1175   PD        0.595935    0.482912    0.340136     0.005394
PD1176   PD        0.634732    0.447803    0.340138     0.005394
PD1177   PD        0.632951    0.482325    0.304864     0.005394
PD1178   PD        0.671710    0.447601    0.303477     0.005394
PD1179   PD        0.670160    0.482411    0.340942     0.005394
PD1180   PD        0.706193    0.445330    0.339840     0.005394
PD1181   PD        0.706146    0.484650    0.303630     0.005394
PD1182   PD        0.778122    0.448047    0.268533     0.005394
PD1183   PD        0.743688    0.482781    0.342087     0.005394
PD1184   PD        0.781542    0.447886    0.341797     0.005394
PD1185   PD        0.779617    0.484553    0.306009     0.005394
NI1186   NI        0.846962    0.417483    0.307488     0.004307
PD1187   PD        0.816187    0.485129    0.341765     0.005394
NI1188   NI        0.854628    0.448564    0.342207     0.004307
NI1189   NI        0.853043    0.485075    0.304605     0.004307
NI1190   NI        0.047556    0.518964    0.342481     0.004307
NI1191   NI        0.049236    0.557598    0.306761     0.004307
NI1192   NI        0.082970    0.523817    0.306635     0.004307
NI1193   NI        0.081018    0.558015    0.343667     0.004307
PD1194   PD        0.117040    0.522452    0.341305     0.005394
NI1195   NI        0.117519    0.558140    0.306609     0.004307
PD1196   PD        0.154798    0.522923    0.305627     0.005394
PD1197   PD        0.155112    0.560297    0.342612     0.005394
PD1198   PD        0.192297    0.522420    0.342280     0.005394
PD1199   PD        0.192719    0.560576    0.306565     0.005394
PD1200   PD        0.226680    0.520641    0.304522     0.005394
PD1201   PD        0.229686    0.559838    0.342667     0.005394
PD1202   PD        0.237980    0.526312    0.308467     0.005394
PD1203   PD        0.235929    0.555034    0.333897     0.005394
PD1204   PD        0.292765    0.503202    0.313341     0.005394
PD1205   PD        0.326730    0.540075    0.311179     0.005394
PD1206   PD        0.336843    0.520622    0.340808     0.005394
PD1207   PD        0.328420    0.566492    0.284976     0.005394
PD1208   PD        0.375444    0.521612    0.302012     0.005394
PD1209   PD        0.373366    0.556808    0.339946     0.005394
PD1210   PD        0.389181    0.546514    0.341112     0.005394
PD1211   PD        0.403468    0.586327    0.314655     0.005394
PD1212   PD        0.448772    0.522607    0.301673     0.005394
PD1213   PD        0.460680    0.555039    0.321430     0.005394
PD1214   PD        0.485802    0.521361    0.339592     0.005394
PD1215   PD        0.482812    0.572171    0.278647     0.005394
PD1216   PD        0.522807    0.521880    0.302315     0.005394
PD1217   PD        0.522511    0.557157    0.339122     0.005394
PD1218   PD        0.559405    0.528321    0.357548     0.005394
PD1219   PD        0.545232    0.570284    0.326454     0.005394
PD1220   PD        0.595971    0.520348    0.305235     0.005394
PD1221   PD        0.595264    0.557088    0.340613     0.005394
PD1222   PD        0.632099    0.516364    0.340317     0.005394
PD1223   PD        0.631898    0.557385    0.302716     0.005394
PD1224   PD        0.669912    0.520383    0.304461     0.005394
PD1225   PD        0.667944    0.555496    0.341123     0.005394
PD1226   PD        0.707028    0.518077    0.341205     0.005394
PD1227   PD        0.706190    0.555444    0.305459     0.005394
PD1228   PD        0.742106    0.520344    0.303677     0.005394
NI1229   NI        0.740884    0.533568    0.335001     0.004307
PD1230   PD        0.778830    0.519752    0.341812     0.005394
NI1231   NI        0.777826    0.555723    0.307164     0.004307
NI1232   NI        0.813264    0.520880    0.306401     0.004307
NI1233   NI        0.815373    0.559808    0.342782     0.004307
NI1234   NI        0.850661    0.523132    0.341247     0.004307
NI1235   NI        0.847310    0.560636    0.304568     0.004307
NI1236   NI        0.074989    0.629678    0.355853     0.004307
NI1237   NI        0.087153    0.595653    0.308281     0.004307
NI1238   NI        0.105143    0.625378    0.318673     0.004307
NI1239   NI        0.106532    0.607506    0.309341     0.004307
NI1240   NI        0.116536    0.634067    0.307486     0.004307
PD1241   PD        0.153432    0.597154    0.307145     0.005394
NI1242   NI        0.156824    0.630712    0.340205     0.004307
PD1243   PD        0.190767    0.595994    0.340656     0.005394
PD1244   PD        0.191289    0.634672    0.305705     0.005394
PD1245   PD        0.227740    0.597279    0.304325     0.005394
PD1246   PD        0.227782    0.631798    0.342326     0.005394
PD1247   PD        0.266408    0.595629    0.341391     0.005394
NI1248   NI        0.257814    0.658669    0.319986     0.004307
PD1249   PD        0.315124    0.586127    0.325619     0.005394
PD1250   PD        0.303071    0.633154    0.343544     0.005394
PD1251   PD        0.333542    0.606814    0.368138     0.005394
PD1252   PD        0.336122    0.632773    0.305348     0.005394
PD1253   PD        0.401023    0.580487    0.301843     0.005394
PD1254   PD        0.387543    0.649261    0.347833     0.005394
PD1255   PD        0.375247    0.599341    0.344515     0.005394
PD1256   PD        0.436647    0.617727    0.290583     0.005394
PD1257   PD        0.450168    0.595900    0.302706     0.005394
PD1258   PD        0.430907    0.666155    0.350253     0.005394
PD1259   PD        0.486730    0.595033    0.340909     0.005394
PD1260   PD        0.483682    0.628966    0.303271     0.005394
PD1261   PD        0.522219    0.593749    0.303283     0.005394
PD1262   PD        0.512362    0.658090    0.329724     0.005394
PD1263   PD        0.559606    0.593385    0.339556     0.005394
PD1264   PD        0.558562    0.632169    0.303597     0.005394
PD1265   PD        0.596806    0.593993    0.302924     0.005394
PD1266   PD        0.594895    0.631079    0.340386     0.005394
PD1267   PD        0.630899    0.593802    0.340694     0.005394
PD1268   PD        0.631115    0.631012    0.302096     0.005394
PD1269   PD        0.666564    0.591676    0.304187     0.005394
NI1270   NI        0.672242    0.634117    0.348887     0.004307
NI1271   NI        0.715571    0.580132    0.349667     0.004307
NI1272   NI        0.701969    0.650306    0.299005     0.004307
NI1273   NI        0.750585    0.580702    0.314238     0.004307
NI1274   NI        0.761619    0.619712    0.340085     0.004307
NI1275   NI        0.780011    0.596503    0.341707     0.004307
NI1276   NI        0.777462    0.631165    0.306258     0.004307
NI1277   NI        0.814656    0.595503    0.305419     0.004307
NI1278   NI        0.832336    0.639979    0.387329     0.004307
NI1279   NI        0.881763    0.597164    0.304430     0.004307
NI1280   NI        0.117940    0.668275    0.342698     0.004307
NI1281   NI        0.135317    0.696395    0.270671     0.004307
NI1282   NI        0.153311    0.669220    0.305188     0.004307
NI1283   NI        0.154393    0.705802    0.341932     0.004307
NI1284   NI        0.181661    0.646336    0.329415     0.004307
NI1285   NI        0.200638    0.709659    0.291439     0.004307
PD1286   PD        0.228043    0.669238    0.305658     0.005394
NI1287   NI        0.218046    0.714810    0.368035     0.004307
NI1288   NI        0.256357    0.692897    0.322447     0.004307
PD1289   PD        0.265345    0.706369    0.303435     0.005394
NI1290   NI        0.282375    0.700102    0.314219     0.004307
PD1291   PD        0.302489    0.705138    0.343862     0.005394
PD1292   PD        0.340774    0.670485    0.340870     0.005394
NI1293   NI        0.323501    0.681985    0.296301     0.004307
PD1294   PD        0.375651    0.671148    0.302467     0.005394
PD1295   PD        0.393946    0.699396    0.342839     0.005394
PD1296   PD        0.412552    0.668892    0.341940     0.005394
PD1297   PD        0.412958    0.705914    0.306738     0.005394
PD1298   PD        0.448544    0.667534    0.303736     0.005394
PD1299   PD        0.447839    0.704836    0.342048     0.005394
PD1300   PD        0.485206    0.664665    0.343600     0.005394
NI1301   NI        0.461537    0.719614    0.297284     0.004307
NI1302   NI        0.534397    0.660412    0.282236     0.004307
PD1303   PD        0.523924    0.706583    0.341639     0.005394
PD1304   PD        0.558542    0.668271    0.342093     0.005394
PD1305   PD        0.559324    0.705727    0.303496     0.005394
NI1306   NI        0.603576    0.678928    0.330742     0.004307
PD1307   PD        0.594679    0.705521    0.341727     0.005394
PD1308   PD        0.640453    0.680627    0.364849     0.005394
NI1309   NI        0.635813    0.702425    0.304375     0.004307
NI1310   NI        0.657770    0.673099    0.310117     0.004307
NI1311   NI        0.672058    0.717012    0.354078     0.004307
NI1312   NI        0.706409    0.660718    0.347994     0.004307
NI1313   NI        0.711843    0.719857    0.318154     0.004307
NI1314   NI        0.744292    0.669744    0.305149     0.004307
NI1315   NI        0.744327    0.703801    0.341661     0.004307
NI1316   NI        0.778922    0.664993    0.343591     0.004307
NI1317   NI        0.797333    0.708796    0.343025     0.004307
NI1318   NI        0.154914    0.739426    0.309475     0.004307
NI1319   NI        0.193689    0.742900    0.345398     0.004307
NI1320   NI        0.189584    0.777705    0.309036     0.004307
NI1321   NI        0.225763    0.742137    0.306468     0.004307
NI1322   NI        0.229385    0.809778    0.308985     0.004307
PD1323   PD        0.264880    0.742128    0.342103     0.005394
NI1324   NI        0.263775    0.779760    0.305003     0.004307
PD1325   PD        0.302345    0.744358    0.305832     0.005394
NI1326   NI        0.339315    0.809502    0.348690     0.004307
PD1327   PD        0.337173    0.740972    0.342121     0.005394
NI1328   NI        0.338061    0.780134    0.307172     0.004307
NI1329   NI        0.357822    0.744299    0.291575     0.004307
NI1330   NI        0.376985    0.777965    0.339454     0.004307
PD1331   PD        0.413107    0.742931    0.342479     0.005394
PD1332   PD        0.412295    0.780320    0.305208     0.005394
PD1333   PD        0.446579    0.742856    0.304724     0.005394
NI1334   NI        0.429539    0.790046    0.333302     0.004307
PD1335   PD        0.486223    0.743349    0.340788     0.005394
NI1336   NI        0.486984    0.779351    0.307420     0.004307
PD1337   PD        0.522207    0.742329    0.305579     0.005394
NI1338   NI        0.539267    0.778920    0.336508     0.004307
PD1339   PD        0.558727    0.741681    0.342826     0.005394
NI1340   NI        0.585598    0.788837    0.316880     0.004307
PD1341   PD        0.594541    0.742146    0.306328     0.005394
NI1342   NI        0.592133    0.776966    0.344934     0.004307
NI1343   NI        0.633031    0.779325    0.333481     0.004307
NI1344   NI        0.630994    0.778468    0.307107     0.004307
NI1345   NI        0.667774    0.741584    0.307634     0.004307
NI1346   NI        0.668579    0.777588    0.344249     0.004307
NI1347   NI        0.706288    0.741818    0.343185     0.004307
NI1348   NI        0.704443    0.776943    0.306886     0.004307
NI1349   NI        0.741668    0.743153    0.306271     0.004307
NI1350   NI        0.265337    0.818311    0.342444     0.004307
NI1351   NI        0.300626    0.816391    0.305454     0.004307
NI1352   NI        0.299108    0.885671    0.312245     0.004307
NI1353   NI        0.337482    0.816177    0.341968     0.004307
NI1354   NI        0.338095    0.854589    0.306159     0.004307
NI1355   NI        0.374312    0.817042    0.303105     0.004307
NI1356   NI        0.373839    0.852844    0.342087     0.004307
NI1357   NI        0.415113    0.829208    0.352890     0.004307
NI1358   NI        0.411018    0.853477    0.306647     0.004307
NI1359   NI        0.485966    0.835998    0.294377     0.004307
NI1360   NI        0.421331    0.881822    0.346229     0.004307
NI1361   NI        0.486378    0.817077    0.342841     0.004307
NI1362   NI        0.513118    0.877604    0.304553     0.004307
NI1363   NI        0.523452    0.816117    0.306189     0.004307
NI1364   NI        0.524424    0.850797    0.344505     0.004307
NI1365   NI        0.558972    0.816188    0.342353     0.004307
NI1366   NI        0.558339    0.851097    0.307059     0.004307
NI1367   NI        0.597301    0.813904    0.310049     0.004307
NI1368   NI        0.594296    0.852674    0.343878     0.004307
NI1369   NI        0.632894    0.814157    0.343678     0.004307
NI1370   NI        0.263657    0.038780    0.416421     0.004307
NI1371   NI        0.304729    0.083449    0.379650     0.004307
NI1372   NI        0.338830    0.046869    0.379256     0.004307
NI1373   NI        0.374813    0.043909    0.416995     0.004307
NI1374   NI        0.411313    0.010171    0.417372     0.004307
NI1375   NI        0.411546    0.046498    0.381308     0.004307
NI1376   NI        0.449263    0.039861    0.350558     0.004307
NI1377   NI        0.448998    0.044119    0.415840     0.004307
NI1378   NI        0.486518    0.005895    0.415966     0.004307
NI1379   NI        0.523056    0.006391    0.378769     0.004307
NI1380   NI        0.522822    0.042174    0.415823     0.004307
NI1381   NI        0.595279    0.084432    0.380774     0.004307
NI1382   NI        0.595511    0.041204    0.416468     0.004307
NI1383   NI        0.642762    0.065255    0.386769     0.004307
NI1384   NI        0.163290    0.117896    0.415434     0.004307
NI1385   NI        0.181201    0.072750    0.437892     0.004307
NI1386   NI        0.194208    0.120398    0.379466     0.004307
NI1387   NI        0.220351    0.104930    0.371642     0.004307
NI1388   NI        0.228333    0.120090    0.415675     0.004307
NI1389   NI        0.269093    0.048190    0.452697     0.004307
NI1390   NI        0.266292    0.118338    0.380544     0.004307
NI1391   NI        0.300781    0.072706    0.398007     0.004307
PD1392   PD        0.304470    0.119868    0.415763     0.005394
PD1393   PD        0.375245    0.081246    0.379071     0.005394
PD1394   PD        0.339040    0.119834    0.379282     0.005394
NI1395   NI        0.392892    0.057027    0.407373     0.004307
PD1396   PD        0.377178    0.117273    0.414915     0.005394
NI1397   NI        0.437321    0.074127    0.426032     0.004307
PD1398   PD        0.413718    0.117040    0.378669     0.005394
NI1399   NI        0.482752    0.117001    0.380766     0.004307
PD1400   PD        0.452513    0.118678    0.414680     0.005394
PD1401   PD        0.487233    0.078839    0.414558     0.005394
PD1402   PD        0.450519    0.079568    0.377555     0.005394
PD1403   PD        0.523367    0.078553    0.379259     0.005394
PD1404   PD        0.524893    0.113770    0.415213     0.005394
PD1405   PD        0.560417    0.077470    0.416778     0.005394
PD1406   PD        0.560881    0.115544    0.378771     0.005394
NI1407   NI        0.598997    0.075730    0.378939     0.004307
PD1408   PD        0.597298    0.114291    0.414848     0.005394
NI1409   NI        0.637128    0.033696    0.414807     0.004307
PD1410   PD        0.636003    0.115273    0.379626     0.005394
NI1411   NI        0.637812    0.070838    0.376919     0.004307
NI1412   NI        0.650294    0.104862    0.426982     0.004307
NI1413   NI        0.707960    0.077894    0.413984     0.004307
NI1414   NI        0.675907    0.103397    0.380065     0.004307
NI1415   NI        0.746469    0.115226    0.417224     0.004307
NI1416   NI        0.079920    0.191681    0.416538     0.004307
NI1417   NI        0.080019    0.156192    0.452297     0.004307
NI1418   NI        0.127967    0.214263    0.383863     0.004307
NI1419   NI        0.155275    0.156084    0.379113     0.004307
PD1420   PD        0.153952    0.191818    0.416013     0.005394
PD1421   PD        0.194415    0.156670    0.415192     0.005394
PD1422   PD        0.190277    0.190795    0.377615     0.005394
NI1423   NI        0.203399    0.152151    0.363955     0.004307
PD1424   PD        0.229408    0.156219    0.378490     0.005394
PD1425   PD        0.265413    0.155171    0.416401     0.005394
NI1426   NI        0.236936    0.176121    0.389247     0.004307
NI1427   NI        0.311614    0.176172    0.400229     0.004307
PD1428   PD        0.302092    0.191620    0.413991     0.005394
PD1429   PD        0.339641    0.154224    0.413676     0.005394
PD1430   PD        0.341179    0.192530    0.377942     0.005394
PD1431   PD        0.377192    0.154679    0.375755     0.005394
PD1432   PD        0.377588    0.192466    0.411662     0.005394
PD1433   PD        0.413313    0.154097    0.414401     0.005394
PD1434   PD        0.411897    0.190059    0.376802     0.005394
PD1435   PD        0.448929    0.152773    0.378357     0.005394
PD1436   PD        0.443419    0.175128    0.412773     0.005394
PD1437   PD        0.488418    0.152081    0.416393     0.005394
PD1438   PD        0.485388    0.189705    0.379664     0.005394
PD1439   PD        0.525772    0.151822    0.379191     0.005394
PD1440   PD        0.524943    0.187540    0.415742     0.005394
PD1441   PD        0.561546    0.152355    0.414839     0.005394
PD1442   PD        0.562196    0.190335    0.379048     0.005394
PD1443   PD        0.597080    0.152566    0.377603     0.005394
PD1444   PD        0.596372    0.190034    0.416735     0.005394
PD1445   PD        0.632903    0.152137    0.416454     0.005394
PD1446   PD        0.636106    0.188400    0.379805     0.005394
PD1447   PD        0.668097    0.155327    0.378394     0.005394
PD1448   PD        0.671412    0.188703    0.416413     0.005394
NI1449   NI        0.746316    0.140110    0.416081     0.004307
PD1450   PD        0.709740    0.188118    0.379570     0.005394
NI1451   NI        0.744692    0.151845    0.378235     0.004307
PD1452   PD        0.746494    0.189083    0.416694     0.005394
NI1453   NI        0.790966    0.154573    0.439845     0.004307
NI1454   NI        0.781413    0.188832    0.377740     0.004307
NI1455   NI        0.819246    0.188694    0.415937     0.004307
NI1456   NI        0.043243    0.264271    0.378208     0.004307
NI1457   NI        0.081033    0.227115    0.377771     0.004307
NI1458   NI        0.079786    0.264296    0.414927     0.004307
NI1459   NI        0.118047    0.227449    0.415921     0.004307
PD1460   PD        0.116763    0.263003    0.377574     0.005394
PD1461   PD        0.155869    0.229001    0.378973     0.005394
PD1462   PD        0.153547    0.264415    0.414420     0.005394
PD1463   PD        0.189800    0.228495    0.412655     0.005394
PD1464   PD        0.193131    0.267640    0.378363     0.005394
PD1465   PD        0.227457    0.226749    0.377144     0.005394
PD1466   PD        0.229664    0.264984    0.414880     0.005394
PD1467   PD        0.265396    0.228599    0.415868     0.005394
PD1468   PD        0.251331    0.257506    0.396085     0.005394
NI1469   NI        0.285909    0.221545    0.392065     0.004307
PD1470   PD        0.301465    0.264554    0.413888     0.005394
PD1471   PD        0.339817    0.224906    0.408663     0.005394
PD1472   PD        0.338550    0.265524    0.376401     0.005394
PD1473   PD        0.376984    0.228928    0.376049     0.005394
PD1474   PD        0.377261    0.258153    0.424164     0.005394
PD1475   PD        0.413080    0.226971    0.414726     0.005394
PD1476   PD        0.412143    0.265524    0.377453     0.005394
PD1477   PD        0.450560    0.226556    0.379460     0.005394
PD1478   PD        0.451206    0.263868    0.414072     0.005394
PD1479   PD        0.487932    0.227085    0.412717     0.005394
PD1480   PD        0.486352    0.263320    0.378284     0.005394
PD1481   PD        0.524487    0.226801    0.378568     0.005394
PD1482   PD        0.523856    0.262929    0.414648     0.005394
PD1483   PD        0.561822    0.225326    0.414131     0.005394
PD1484   PD        0.561196    0.262910    0.378397     0.005394
PD1485   PD        0.597261    0.226206    0.378444     0.005394
PD1486   PD        0.597520    0.261191    0.416501     0.005394
PD1487   PD        0.635769    0.226023    0.417402     0.005394
PD1488   PD        0.635548    0.260710    0.379861     0.005394
NI1489   NI        0.676498    0.214348    0.364265     0.004307
PD1490   PD        0.672832    0.263753    0.414707     0.005394
PD1491   PD        0.708609    0.224271    0.416186     0.005394
NI1492   NI        0.693312    0.252826    0.353732     0.004307
PD1493   PD        0.746561    0.224057    0.379110     0.005394
NI1494   NI        0.772246    0.262352    0.450725     0.004307
PD1495   PD        0.781812    0.225059    0.415988     0.005394
PD1496   PD        0.782241    0.263430    0.378697     0.005394
NI1497   NI        0.819814    0.226945    0.379059     0.004307
NI1498   NI        0.856033    0.227111    0.414969     0.004307
NI1499   NI        0.853162    0.264098    0.383816     0.004307
NI1500   NI        0.009615    0.272122    0.418270     0.004307
NI1501   NI        0.043845    0.339274    0.379434     0.004307
NI1502   NI        0.080065    0.301827    0.378870     0.004307
PD1503   PD        0.081233    0.336969    0.416728     0.005394
PD1504   PD        0.116944    0.301041    0.414229     0.005394
PD1505   PD        0.116250    0.336684    0.377735     0.005394
PD1506   PD        0.152394    0.299453    0.377935     0.005394
PD1507   PD        0.152180    0.338541    0.413739     0.005394
NI1508   NI        0.165037    0.267400    0.414585     0.004307
NI1509   NI        0.193175    0.304172    0.405646     0.004307
PD1510   PD        0.228887    0.300411    0.378386     0.005394
PD1511   PD        0.228245    0.337558    0.414706     0.005394
PD1512   PD        0.265715    0.303458    0.414060     0.005394
PD1513   PD        0.265054    0.340048    0.379078     0.005394
PD1514   PD        0.299896    0.301768    0.377857     0.005394
PD1515   PD        0.301340    0.337572    0.414296     0.005394
PD1516   PD        0.336459    0.301102    0.416144     0.005394
PD1517   PD        0.338766    0.339151    0.377611     0.005394
PD1518   PD        0.374656    0.301203    0.379308     0.005394
PD1519   PD        0.376703    0.339709    0.413000     0.005394
PD1520   PD        0.414542    0.301246    0.415240     0.005394
PD1521   PD        0.413202    0.336522    0.377815     0.005394
PD1522   PD        0.450208    0.299270    0.375836     0.005394
PD1523   PD        0.449184    0.337015    0.414614     0.005394
PD1524   PD        0.486784    0.298488    0.413608     0.005394
PD1525   PD        0.485234    0.337412    0.377266     0.005394
PD1526   PD        0.523281    0.301369    0.377607     0.005394
PD1527   PD        0.524274    0.336482    0.414211     0.005394
PD1528   PD        0.562229    0.298328    0.413603     0.005394
PD1529   PD        0.560789    0.338835    0.378122     0.005394
PD1530   PD        0.595631    0.299803    0.379018     0.005394
PD1531   PD        0.597611    0.336447    0.415259     0.005394
PD1532   PD        0.634952    0.298948    0.414409     0.005394
PD1533   PD        0.631861    0.335340    0.379391     0.005394
PD1534   PD        0.670358    0.298788    0.377970     0.005394
PD1535   PD        0.670080    0.334976    0.415270     0.005394
PD1536   PD        0.708309    0.300289    0.415697     0.005394
PD1537   PD        0.708818    0.335586    0.377853     0.005394
PD1538   PD        0.745416    0.299151    0.378813     0.005394
PD1539   PD        0.744079    0.336456    0.415647     0.005394
PD1540   PD        0.781593    0.299430    0.415687     0.005394
NI1541   NI        0.789134    0.347071    0.350360     0.004307
NI1542   NI        0.818015    0.299289    0.379291     0.004307
NI1543   NI        0.818768    0.337984    0.415284     0.004307
NI1544   NI        0.854895    0.301823    0.414721     0.004307
NI1545   NI        0.857658    0.302914    0.352358     0.004307
NI1546   NI        0.006886    0.414614    0.417039     0.004307
NI1547   NI        0.072699    0.365153    0.441770     0.004307
NI1548   NI        0.045303    0.413504    0.379627     0.004307
NI1549   NI        0.080152    0.373564    0.379540     0.004307
NI1550   NI        0.083350    0.411122    0.421599     0.004307
PD1551   PD        0.117061    0.373743    0.415979     0.005394
PD1552   PD        0.116072    0.411153    0.377592     0.005394
NI1553   NI        0.164957    0.387706    0.385547     0.004307
NI1554   NI        0.147804    0.385303    0.432881     0.004307
PD1555   PD        0.194397    0.374617    0.414229     0.005394
PD1556   PD        0.163976    0.386964    0.384635     0.005394
PD1557   PD        0.228595    0.376604    0.378974     0.005394
PD1558   PD        0.228511    0.412257    0.415628     0.005394
PD1559   PD        0.264812    0.374213    0.414660     0.005394
PD1560   PD        0.265469    0.410688    0.378055     0.005394
PD1561   PD        0.328758    0.341136    0.379628     0.005394
PD1562   PD        0.301731    0.409545    0.414932     0.005394
PD1563   PD        0.326013    0.364964    0.425173     0.005394
PD1564   PD        0.340218    0.412174    0.376365     0.005394
PD1565   PD        0.373575    0.373127    0.377015     0.005394
PD1566   PD        0.377264    0.407780    0.412856     0.005394
PD1567   PD        0.415066    0.375717    0.413710     0.005394
PD1568   PD        0.413338    0.411208    0.375039     0.005394
PD1569   PD        0.448958    0.372662    0.374668     0.005394
PD1570   PD        0.448986    0.408169    0.413759     0.005394
PD1571   PD        0.485377    0.373582    0.413785     0.005394
PD1572   PD        0.484617    0.409834    0.377542     0.005394
PD1573   PD        0.521942    0.372154    0.376770     0.005394
PD1574   PD        0.522256    0.408347    0.413560     0.005394
PD1575   PD        0.560187    0.373857    0.412909     0.005394
PD1576   PD        0.559580    0.410936    0.377965     0.005394
PD1577   PD        0.597974    0.375605    0.376535     0.005394
PD1578   PD        0.596963    0.410514    0.412912     0.005394
PD1579   PD        0.632733    0.371890    0.414093     0.005394
PD1580   PD        0.633479    0.412244    0.381200     0.005394
NI1581   NI        0.667644    0.368911    0.363408     0.004307
PD1582   PD        0.668426    0.406859    0.414672     0.005394
PD1583   PD        0.708118    0.373423    0.416184     0.005394
PD1584   PD        0.707453    0.408991    0.379279     0.005394
PD1585   PD        0.745013    0.372552    0.379037     0.005394
PD1586   PD        0.744593    0.408894    0.414421     0.005394
PD1587   PD        0.782833    0.374494    0.416108     0.005394
PD1588   PD        0.781127    0.410231    0.377710     0.005394
NI1589   NI        0.817838    0.375912    0.380296     0.004307
NI1590   NI        0.817524    0.412832    0.414915     0.004307
NI1591   NI        0.855021    0.374098    0.415896     0.004307
NI1592   NI        0.864326    0.427548    0.351518     0.004307
NI1593   NI        0.918554    0.376771    0.415179     0.004307
NI1594   NI        0.013492    0.450419    0.380908     0.004307
NI1595   NI        0.000769    0.458584    0.394017     0.004307
NI1596   NI        0.044980    0.448395    0.416092     0.004307
NI1597   NI        0.044480    0.486868    0.379803     0.004307
PD1598   PD        0.080240    0.448365    0.379620     0.005394
PD1599   PD        0.082370    0.484858    0.416781     0.005394
PD1600   PD        0.117920    0.447500    0.415269     0.005394
PD1601   PD        0.117787    0.484489    0.380814     0.005394
PD1602   PD        0.116850    0.449999    0.342994     0.005394
PD1603   PD        0.154020    0.485985    0.416556     0.005394
PD1604   PD        0.191425    0.451080    0.414876     0.005394
PD1605   PD        0.192836    0.486154    0.379052     0.005394
PD1606   PD        0.227169    0.449028    0.376393     0.005394
PD1607   PD        0.227614    0.486319    0.415098     0.005394
PD1608   PD        0.264636    0.448357    0.414349     0.005394
PD1609   PD        0.266017    0.484335    0.378041     0.005394
PD1610   PD        0.301837    0.446027    0.377202     0.005394
PD1611   PD        0.300590    0.483234    0.415090     0.005394
PD1612   PD        0.336952    0.447252    0.416861     0.005394
PD1613   PD        0.338597    0.482896    0.376819     0.005394
PD1614   PD        0.398895    0.432964    0.381822     0.005394
PD1615   PD        0.388658    0.489584    0.414693     0.005394
PD1616   PD        0.412298    0.447498    0.413718     0.005394
PD1617   PD        0.413931    0.483040    0.377038     0.005394
PD1618   PD        0.449383    0.445134    0.376155     0.005394
PD1619   PD        0.448801    0.482415    0.414484     0.005394
PD1620   PD        0.483019    0.445378    0.415131     0.005394
PD1621   PD        0.515734    0.512818    0.379544     0.005394
PD1622   PD        0.521593    0.444329    0.377540     0.005394
PD1623   PD        0.521588    0.484994    0.413372     0.005394
PD1624   PD        0.570145    0.453963    0.421233     0.005394
PD1625   PD        0.559420    0.482338    0.377986     0.005394
PD1626   PD        0.605357    0.457903    0.382377     0.005394
PD1627   PD        0.608324    0.487242    0.418916     0.005394
PD1628   PD        0.633795    0.444171    0.414288     0.005394
PD1629   PD        0.633730    0.482637    0.378522     0.005394
PD1630   PD        0.670385    0.446627    0.378643     0.005394
PD1631   PD        0.668541    0.483456    0.418094     0.005394
NI1632   NI        0.716896    0.425574    0.406332     0.004307
PD1633   PD        0.706365    0.481346    0.376492     0.005394
NI1634   NI        0.752567    0.469875    0.392736     0.004307
PD1635   PD        0.740340    0.483441    0.415756     0.005394
NI1636   NI        0.808350    0.416545    0.416434     0.004307
PD1637   PD        0.779400    0.484237    0.379038     0.005394
NI1638   NI        0.814316    0.433590    0.347392     0.004307
NI1639   NI        0.828437    0.498267    0.410527     0.004307
NI1640   NI        0.852165    0.450103    0.415148     0.004307
NI1641   NI        0.852718    0.486402    0.378354     0.004307
NI1642   NI        0.889153    0.449784    0.380399     0.004307
NI1643   NI        0.887895    0.487005    0.416268     0.004307
NI1644   NI        0.045140    0.521357    0.417178     0.004307
NI1645   NI        0.033278    0.537490    0.370632     0.004307
PD1646   PD        0.081737    0.521301    0.381337     0.005394
NI1647   NI        0.082115    0.558804    0.417596     0.004307
PD1648   PD        0.117877    0.521813    0.416130     0.005394
PD1649   PD        0.117310    0.558157    0.379238     0.005394
PD1650   PD        0.153636    0.523198    0.379607     0.005394
PD1651   PD        0.155077    0.558888    0.416073     0.005394
PD1652   PD        0.190953    0.522237    0.415483     0.005394
NI1653   NI        0.161742    0.594889    0.379061     0.004307
PD1654   PD        0.209488    0.543146    0.372351     0.005394
PD1655   PD        0.229565    0.558899    0.416187     0.005394
PD1656   PD        0.264446    0.522934    0.415100     0.005394
PD1657   PD        0.265322    0.558526    0.376738     0.005394
PD1658   PD        0.301999    0.519871    0.377164     0.005394
PD1659   PD        0.304385    0.555216    0.415464     0.005394
PD1660   PD        0.338116    0.521591    0.414809     0.005394
PD1661   PD        0.339550    0.574477    0.370622     0.005394
PD1662   PD        0.375605    0.518756    0.378930     0.005394
PD1663   PD        0.391309    0.569021    0.384077     0.005394
PD1664   PD        0.427439    0.527252    0.399710     0.005394
PD1665   PD        0.412300    0.558931    0.379276     0.005394
PD1666   PD        0.436603    0.530558    0.348488     0.005394
PD1667   PD        0.450766    0.558273    0.413173     0.005394
PD1668   PD        0.486808    0.518353    0.413959     0.005394
PD1669   PD        0.485315    0.556935    0.377203     0.005394
PD1670   PD        0.521503    0.519555    0.375819     0.005394
PD1671   PD        0.522742    0.555005    0.413998     0.005394
PD1672   PD        0.561920    0.520182    0.412900     0.005394
PD1673   PD        0.572979    0.568013    0.384250     0.005394
PD1674   PD        0.600186    0.525773    0.380679     0.005394
PD1675   PD        0.596277    0.557279    0.413574     0.005394
PD1676   PD        0.632893    0.519339    0.413767     0.005394
PD1677   PD        0.633880    0.554952    0.375875     0.005394
PD1678   PD        0.668450    0.519730    0.377147     0.005394
PD1679   PD        0.670072    0.557416    0.413117     0.005394
PD1680   PD        0.707201    0.524224    0.420703     0.005394
NI1681   NI        0.716813    0.556978    0.384403     0.004307
PD1682   PD        0.741221    0.518304    0.378925     0.005394
PD1683   PD        0.745413    0.556352    0.413741     0.005394
PD1684   PD        0.781660    0.521542    0.416703     0.005394
PD1685   PD        0.778074    0.557342    0.378103     0.005394
NI1686   NI        0.816909    0.521445    0.378846     0.004307
NI1687   NI        0.814847    0.559095    0.415129     0.004307
NI1688   NI        0.851267    0.523288    0.416425     0.004307
NI1689   NI        0.850435    0.558569    0.379722     0.004307
NI1690   NI        0.038418    0.622757    0.391043     0.004307
NI1691   NI        0.054525    0.618604    0.399211     0.004307
NI1692   NI        0.068153    0.570103    0.390726     0.004307
NI1693   NI        0.083535    0.632987    0.420914     0.004307
PD1694   PD        0.119946    0.595613    0.416244     0.005394
NI1695   NI        0.117690    0.634229    0.380567     0.004307
PD1696   PD        0.151856    0.596617    0.380330     0.005394
PD1697   PD        0.155286    0.632570    0.416361     0.005394
PD1698   PD        0.192348    0.595171    0.416261     0.005394
PD1699   PD        0.190842    0.631911    0.379073     0.005394
NI1700   NI        0.236833    0.623869    0.367334     0.004307
PD1701   PD        0.226928    0.630924    0.417646     0.005394
PD1702   PD        0.265926    0.596302    0.416571     0.005394
PD1703   PD        0.263932    0.632794    0.381824     0.005394
PD1704   PD        0.300814    0.595080    0.381390     0.005394
PD1705   PD        0.300995    0.634220    0.414910     0.005394
PD1706   PD        0.335456    0.594462    0.414931     0.005394
PD1707   PD        0.328561    0.621222    0.352230     0.005394
PD1708   PD        0.366980    0.570340    0.379465     0.005394
PD1709   PD        0.378572    0.633581    0.415003     0.005394
PD1710   PD        0.415025    0.596772    0.415123     0.005394
PD1711   PD        0.412666    0.629654    0.378051     0.005394
PD1712   PD        0.450644    0.594234    0.384024     0.005394
PD1713   PD        0.449501    0.629249    0.412386     0.005394
PD1714   PD        0.485602    0.593341    0.415320     0.005394
PD1715   PD        0.487585    0.631988    0.378926     0.005394
PD1716   PD        0.496850    0.579943    0.377804     0.005394
PD1717   PD        0.524100    0.632230    0.414877     0.005394
PD1718   PD        0.577600    0.595448    0.411110     0.005394
PD1719   PD        0.558102    0.629090    0.377896     0.005394
PD1720   PD        0.612041    0.597701    0.371847     0.005394
PD1721   PD        0.614600    0.627289    0.425008     0.005394
PD1722   PD        0.631772    0.593488    0.415204     0.005394
PD1723   PD        0.634040    0.630282    0.376554     0.005394
PD1724   PD        0.666702    0.592526    0.375148     0.005394
NI1725   NI        0.687111    0.641692    0.426729     0.004307
PD1726   PD        0.706614    0.592847    0.414887     0.005394
NI1727   NI        0.712637    0.636403    0.387953     0.004307
NI1728   NI        0.742814    0.594543    0.376259     0.004307
NI1729   NI        0.740703    0.628785    0.414183     0.004307
NI1730   NI        0.785087    0.598429    0.421030     0.004307
NI1731   NI        0.779195    0.631507    0.380813     0.004307
NI1732   NI        0.814161    0.594556    0.379839     0.004307
NI1733   NI        0.776030    0.664759    0.418537     0.004307
NI1734   NI        0.848534    0.598534    0.415248     0.004307
NI1735   NI        0.849184    0.632144    0.375792     0.004307
NI1736   NI        0.066444    0.664943    0.388938     0.004307
NI1737   NI        0.082488    0.706711    0.417825     0.004307
NI1738   NI        0.118216    0.668583    0.418019     0.004307
NI1739   NI        0.081070    0.744889    0.383054     0.004307
PD1740   PD        0.155367    0.668882    0.380240     0.005394
NI1741   NI        0.153181    0.705575    0.415716     0.004307
PD1742   PD        0.191785    0.667512    0.415166     0.005394
PD1743   PD        0.190835    0.705456    0.378822     0.005394
NI1744   NI        0.237755    0.684916    0.403825     0.004307
PD1745   PD        0.227741    0.705931    0.415592     0.005394
PD1746   PD        0.301634    0.707074    0.415358     0.005394
PD1747   PD        0.266671    0.706456    0.379538     0.005394
PD1748   PD        0.302439    0.669833    0.379494     0.005394
NI1749   NI        0.320287    0.735822    0.422568     0.004307
PD1750   PD        0.332871    0.688310    0.407817     0.005394
PD1751   PD        0.340279    0.705524    0.378618     0.005394
PD1752   PD        0.374223    0.668840    0.378807     0.005394
PD1753   PD        0.375676    0.706480    0.413766     0.005394
PD1754   PD        0.414556    0.669311    0.414918     0.005394
NI1755   NI        0.377007    0.735114    0.372603     0.004307
PD1756   PD        0.450057    0.668107    0.378973     0.005394
PD1757   PD        0.450082    0.704918    0.415735     0.005394
PD1758   PD        0.484535    0.667847    0.414002     0.005394
NI1759   NI        0.489660    0.710365    0.379139     0.004307
PD1760   PD        0.523619    0.668859    0.378284     0.005394
PD1761   PD        0.522343    0.704102    0.416596     0.005394
PD1762   PD        0.558786    0.669464    0.413925     0.005394
PD1763   PD        0.558203    0.705597    0.379273     0.005394
PD1764   PD        0.596015    0.666605    0.376966     0.005394
NI1765   NI        0.587709    0.727369    0.417792     0.004307
PD1766   PD        0.633535    0.668074    0.413467     0.005394
PD1767   PD        0.630613    0.702600    0.378830     0.005394
PD1768   PD        0.668188    0.665233    0.378255     0.005394
PD1769   PD        0.670230    0.703505    0.415663     0.005394
PD1770   PD        0.703304    0.663734    0.415418     0.005394
NI1771   NI        0.706652    0.711627    0.387571     0.004307
NI1772   NI        0.741481    0.668599    0.378830     0.004307
NI1773   NI        0.741279    0.700527    0.415636     0.004307
NI1774   NI        0.786938    0.668224    0.418522     0.004307
NI1775   NI        0.806528    0.704941    0.409171     0.004307
NI1776   NI        0.812567    0.669943    0.378388     0.004307
NI1777   NI        0.816829    0.703095    0.415724     0.004307
NI1778   NI        0.116880    0.742566    0.416124     0.004307
NI1779   NI        0.153286    0.740530    0.379229     0.004307
NI1780   NI        0.115872    0.773786    0.455730     0.004307
NI1781   NI        0.162397    0.740578    0.446296     0.004307
NI1782   NI        0.156355    0.775060    0.345796     0.004307
NI1783   NI        0.219235    0.754687    0.397870     0.004307
NI1784   NI        0.201348    0.777301    0.435710     0.004307
PD1785   PD        0.263672    0.742026    0.415165     0.005394
NI1786   NI        0.263856    0.778400    0.378135     0.004307
PD1787   PD        0.301074    0.744182    0.377680     0.005394
PD1788   PD        0.301037    0.778345    0.416317     0.005394
PD1789   PD        0.337383    0.742269    0.415770     0.005394
PD1790   PD        0.338651    0.779950    0.379368     0.005394
PD1791   PD        0.373871    0.743255    0.378883     0.005394
PD1792   PD        0.375162    0.779122    0.415204     0.005394
PD1793   PD        0.411428    0.743291    0.415730     0.005394
PD1794   PD        0.412438    0.778600    0.379013     0.005394
PD1795   PD        0.449637    0.739243    0.380074     0.005394
PD1796   PD        0.448231    0.778888    0.416620     0.005394
NI1797   NI        0.500036    0.733557    0.405529     0.004307
PD1798   PD        0.486426    0.778405    0.377876     0.005394
PD1799   PD        0.522081    0.742078    0.379519     0.005394
PD1800   PD        0.523471    0.778656    0.417520     0.005394
NI1801   NI        0.548149    0.747566    0.422853     0.004307
PD1802   PD        0.557715    0.779365    0.380944     0.005394
PD1803   PD        0.595821    0.742919    0.378318     0.005394
PD1804   PD        0.593635    0.777238    0.417284     0.005394
NI1805   NI        0.632194    0.760818    0.408897     0.004307
NI1806   NI        0.631721    0.779063    0.382759     0.004307
NI1807   NI        0.684216    0.752100    0.404361     0.004307
NI1808   NI        0.670774    0.773482    0.413011     0.004307
NI1809   NI        0.721250    0.774537    0.432629     0.004307
NI1810   NI        0.704303    0.775495    0.384713     0.004307
NI1811   NI        0.740271    0.736484    0.379782     0.004307
NI1812   NI        0.768278    0.784414    0.420727     0.004307
NI1813   NI        0.779026    0.735269    0.416540     0.004307
NI1814   NI        0.123555    0.817818    0.412117     0.004307
NI1815   NI        0.229349    0.815614    0.378928     0.004307
NI1816   NI        0.263066    0.813666    0.415085     0.004307
NI1817   NI        0.265529    0.853843    0.379977     0.004307
NI1818   NI        0.300808    0.813807    0.379768     0.004307
NI1819   NI        0.285290    0.825225    0.407328     0.004307
NI1820   NI        0.337910    0.817593    0.413970     0.004307
NI1821   NI        0.338403    0.853495    0.379402     0.004307
NI1822   NI        0.375007    0.816104    0.379602     0.004307
NI1823   NI        0.345423    0.847059    0.381192     0.004307
NI1824   NI        0.415426    0.810710    0.417316     0.004307
NI1825   NI        0.413960    0.850086    0.381054     0.004307
NI1826   NI        0.450161    0.814768    0.379548     0.004307
NI1827   NI        0.435271    0.855071    0.410550     0.004307
NI1828   NI        0.487085    0.814295    0.416807     0.004307
NI1829   NI        0.483938    0.845593    0.372255     0.004307
NI1830   NI        0.522720    0.815667    0.379084     0.004307
NI1831   NI        0.521574    0.849102    0.416981     0.004307
NI1832   NI        0.560303    0.813806    0.417616     0.004307
NI1833   NI        0.560433    0.850769    0.381853     0.004307
NI1834   NI        0.625015    0.808548    0.342580     0.004307
NI1835   NI        0.595192    0.849864    0.417260     0.004307
NI1836   NI        0.631113    0.813984    0.419891     0.004307
NI1837   NI        0.630631    0.848286    0.380218     0.004307
NI1838   NI        0.662426    0.796749    0.392919     0.004307
NI1839   NI        0.702597    0.809609    0.422298     0.004307
NI1840   NI        0.411499    0.890769    0.416476     0.004307
NI1841   NI        0.447197    0.923251    0.341396     0.004307
NI1842   NI        0.483735    0.887718    0.414198     0.004307
NI1843   NI        0.231394    0.012983    0.449391     0.004307
NI1844   NI        0.300320    0.048844    0.492163     0.004307
NI1845   NI        0.339957    0.047485    0.453309     0.004307
NI1846   NI        0.375295    0.008649    0.454003     0.004307
NI1847   NI        0.405205    0.025022    0.474841     0.004307
NI1848   NI        0.390311    0.000769    0.518442     0.004307
NI1849   NI        0.412435    0.042697    0.452318     0.004307
NI1850   NI        0.449200    0.008194    0.451202     0.004307
PD1851   PD        0.449393    0.043228    0.489212     0.005394
NI1852   NI        0.524754    0.006448    0.528024     0.004307
NI1853   NI        0.485775    0.042548    0.453296     0.004307
NI1854   NI        0.521740    0.006308    0.453409     0.004307
NI1855   NI        0.523041    0.042685    0.490220     0.004307
NI1856   NI        0.571870    0.029901    0.478369     0.004307
NI1857   NI        0.597996    0.041305    0.490848     0.004307
NI1858   NI        0.634753    0.041623    0.453054     0.004307
NI1859   NI        0.154544    0.119311    0.489984     0.004307
NI1860   NI        0.191557    0.083973    0.486032     0.004307
NI1861   NI        0.191424    0.119792    0.451837     0.004307
NI1862   NI        0.231626    0.084539    0.454178     0.004307
PD1863   PD        0.228591    0.119985    0.490271     0.005394
NI1864   NI        0.264593    0.082602    0.488891     0.004307
PD1865   PD        0.266271    0.120529    0.452148     0.005394
NI1866   NI        0.303687    0.083796    0.453054     0.004307
NI1867   NI        0.279895    0.121736    0.500261     0.004307
NI1868   NI        0.338371    0.082492    0.490264     0.004307
NI1869   NI        0.319927    0.124514    0.475862     0.004307
NI1870   NI        0.393200    0.105403    0.423701     0.004307
NI1871   NI        0.359910    0.111173    0.507116     0.004307
PD1872   PD        0.413149    0.079870    0.489928     0.005394
NI1873   NI        0.400399    0.149968    0.477728     0.004307
PD1874   PD        0.447522    0.080056    0.453870     0.005394
NI1875   NI        0.453334    0.114241    0.502420     0.004307
NI1876   NI        0.490408    0.074019    0.493927     0.004307
PD1877   PD        0.487229    0.082924    0.489194     0.005394
PD1878   PD        0.523555    0.078110    0.452149     0.005394
PD1879   PD        0.523990    0.117343    0.488516     0.005394
PD1880   PD        0.559552    0.077851    0.489014     0.005394
PD1881   PD        0.560861    0.114541    0.452700     0.005394
NI1882   NI        0.598179    0.079221    0.453396     0.004307
PD1883   PD        0.597021    0.115356    0.490596     0.005394
NI1884   NI        0.634588    0.076672    0.489686     0.004307
PD1885   PD        0.635618    0.115379    0.453835     0.005394
NI1886   NI        0.708731    0.040883    0.450852     0.004307
NI1887   NI        0.666552    0.159248    0.517053     0.004307
NI1888   NI        0.707858    0.077463    0.489452     0.004307
NI1889   NI        0.746526    0.077108    0.453500     0.004307
NI1890   NI        0.744522    0.115613    0.490422     0.004307
NI1891   NI        0.114737    0.185160    0.492025     0.004307
NI1892   NI        0.117838    0.156506    0.488213     0.004307
NI1893   NI        0.117269    0.192035    0.452592     0.004307
NI1894   NI        0.154604    0.156386    0.453436     0.004307
NI1895   NI        0.152738    0.192585    0.489439     0.004307
NI1896   NI        0.190581    0.156312    0.489808     0.004307
PD1897   PD        0.189383    0.191443    0.452132     0.005394
PD1898   PD        0.228768    0.154741    0.453227     0.005394
PD1899   PD        0.227857    0.192024    0.488609     0.005394
PD1900   PD        0.265483    0.156507    0.489911     0.005394
PD1901   PD        0.264606    0.191522    0.452803     0.005394
NI1902   NI        0.301056    0.150703    0.446430     0.004307
PD1903   PD        0.303179    0.191455    0.491648     0.005394
NI1904   NI        0.322637    0.134726    0.480432     0.004307
NI1905   NI        0.338229    0.177470    0.445931     0.004307
NI1906   NI        0.369401    0.146603    0.475372     0.004307
PD1907   PD        0.378703    0.191592    0.489842     0.005394
PD1908   PD        0.414531    0.154338    0.488768     0.005394
PD1909   PD        0.413602    0.190813    0.451522     0.005394
PD1910   PD        0.451238    0.153032    0.453512     0.005394
NI1911   NI        0.426845    0.174235    0.518668     0.004307
PD1912   PD        0.487396    0.152770    0.488531     0.005394
PD1913   PD        0.488260    0.188386    0.450915     0.005394
PD1914   PD        0.524801    0.151249    0.452316     0.005394
PD1915   PD        0.523136    0.190397    0.489584     0.005394
PD1916   PD        0.597342    0.149548    0.525534     0.005394
PD1917   PD        0.561702    0.189693    0.452241     0.005394
PD1918   PD        0.598238    0.151259    0.453335     0.005394
PD1919   PD        0.597857    0.189298    0.490216     0.005394
PD1920   PD        0.634645    0.151904    0.489250     0.005394
PD1921   PD        0.635984    0.187479    0.451922     0.005394
NI1922   NI        0.676886    0.153350    0.456632     0.004307
PD1923   PD        0.672536    0.187916    0.490214     0.005394
NI1924   NI        0.708438    0.152043    0.490710     0.004307
PD1925   PD        0.708832    0.187135    0.454010     0.005394
NI1926   NI        0.746361    0.154024    0.451821     0.004307
PD1927   PD        0.747745    0.188206    0.489835     0.005394
NI1928   NI        0.782814    0.151327    0.490748     0.004307
NI1929   NI        0.784041    0.187106    0.452480     0.004307
NI1930   NI        0.820660    0.188935    0.488235     0.004307
NI1931   NI        0.037876    0.280792    0.462809     0.004307
NI1932   NI        0.066675    0.243116    0.449881     0.004307
NI1933   NI        0.079414    0.253142    0.459969     0.004307
NI1934   NI        0.116287    0.224922    0.491335     0.004307
NI1935   NI        0.119654    0.233049    0.487445     0.004307
PD1936   PD        0.156370    0.227715    0.450603     0.005394
PD1937   PD        0.155595    0.266570    0.487457     0.005394
NI1938   NI        0.175994    0.240800    0.499437     0.004307
NI1939   NI        0.168850    0.274607    0.426814     0.004307
NI1940   NI        0.212789    0.217974    0.483041     0.004307
PD1941   PD        0.229207    0.265946    0.489620     0.005394
PD1942   PD        0.262481    0.226532    0.490539     0.005394
NI1943   NI        0.247336    0.268649    0.463033     0.004307
PD1944   PD        0.302383    0.226898    0.449859     0.005394
PD1945   PD        0.294532    0.259161    0.477317     0.005394
PD1946   PD        0.341314    0.226109    0.490780     0.005394
PD1947   PD        0.340167    0.264376    0.452473     0.005394
PD1948   PD        0.377118    0.229359    0.450351     0.005394
PD1949   PD        0.376412    0.264140    0.488491     0.005394
PD1950   PD        0.412646    0.227124    0.488733     0.005394
PD1951   PD        0.413629    0.265974    0.454175     0.005394
PD1952   PD        0.449560    0.226418    0.452517     0.005394
PD1953   PD        0.449861    0.263239    0.489204     0.005394
PD1954   PD        0.486742    0.225961    0.487361     0.005394
PD1955   PD        0.504568    0.251018    0.423318     0.005394
PD1956   PD        0.524838    0.225724    0.451959     0.005394
PD1957   PD        0.524711    0.263396    0.487871     0.005394
PD1958   PD        0.562031    0.225667    0.488589     0.005394
PD1959   PD        0.562203    0.262272    0.451273     0.005394
PD1960   PD        0.598842    0.227035    0.453078     0.005394
PD1961   PD        0.597980    0.262175    0.487624     0.005394
PD1962   PD        0.637226    0.224607    0.489085     0.005394
PD1963   PD        0.636082    0.261760    0.452737     0.005394
PD1964   PD        0.672076    0.224625    0.453264     0.005394
PD1965   PD        0.672642    0.261922    0.487940     0.005394
PD1966   PD        0.709508    0.225972    0.490776     0.005394
PD1967   PD        0.710012    0.262616    0.452781     0.005394
PD1968   PD        0.746442    0.224438    0.453047     0.005394
PD1969   PD        0.745737    0.263518    0.488939     0.005394
NI1970   NI        0.780422    0.228959    0.490035     0.004307
PD1971   PD        0.781955    0.263349    0.451268     0.005394
NI1972   NI        0.819547    0.227584    0.452401     0.004307
NI1973   NI        0.802393    0.241134    0.483211     0.004307
NI1974   NI        0.857475    0.261946    0.451367     0.004307
NI1975   NI        0.073441    0.290224    0.493735     0.004307
NI1976   NI        0.036031    0.328617    0.470849     0.004307
NI1977   NI        0.080270    0.303059    0.453107     0.004307
NI1978   NI        0.082526    0.337277    0.491043     0.004307
PD1979   PD        0.118774    0.302056    0.487279     0.005394
PD1980   PD        0.119742    0.338875    0.451000     0.005394
PD1981   PD        0.156383    0.302448    0.451290     0.005394
PD1982   PD        0.153154    0.337707    0.489583     0.005394
PD1983   PD        0.191642    0.302158    0.488309     0.005394
PD1984   PD        0.170783    0.348869    0.446316     0.005394
NI1985   NI        0.212247    0.294038    0.440423     0.004307
PD1986   PD        0.226408    0.338630    0.489108     0.005394
PD1987   PD        0.267036    0.302401    0.489077     0.005394
PD1988   PD        0.264587    0.337649    0.452360     0.005394
PD1989   PD        0.301068    0.298869    0.449396     0.005394
PD1990   PD        0.302845    0.336603    0.491775     0.005394
PD1991   PD        0.340152    0.299825    0.489168     0.005394
PD1992   PD        0.335672    0.336101    0.451742     0.005394
PD1993   PD        0.347911    0.312160    0.468901     0.005394
PD1994   PD        0.375718    0.336431    0.487903     0.005394
PD1995   PD        0.415958    0.310988    0.512089     0.005394
PD1996   PD        0.443077    0.366439    0.443360     0.005394
PD1997   PD        0.451808    0.300204    0.450648     0.005394
PD1998   PD        0.451199    0.337754    0.487318     0.005394
PD1999   PD        0.485654    0.300593    0.489508     0.005394
PD2000   PD        0.487825    0.337350    0.450236     0.005394
PD2001   PD        0.503660    0.298690    0.458221     0.005394
PD2002   PD        0.512233    0.308033    0.506048     0.005394
PD2003   PD        0.561110    0.301233    0.489054     0.005394
PD2004   PD        0.561490    0.336070    0.451600     0.005394
PD2005   PD        0.582688    0.324725    0.461576     0.005394
PD2006   PD        0.599069    0.336565    0.488328     0.005394
PD2007   PD        0.634935    0.298632    0.491679     0.005394
PD2008   PD        0.634041    0.335627    0.452082     0.005394
PD2009   PD        0.669073    0.299199    0.452948     0.005394
PD2010   PD        0.671890    0.335969    0.488741     0.005394
PD2011   PD        0.681281    0.329213    0.489672     0.005394
PD2012   PD        0.709055    0.336260    0.452152     0.005394
PD2013   PD        0.744762    0.298469    0.451408     0.005394
PD2014   PD        0.745370    0.335428    0.489781     0.005394
NI2015   NI        0.789315    0.279773    0.509958     0.004307
NI2016   NI        0.783836    0.365837    0.481349     0.004307
NI2017   NI        0.820431    0.300386    0.452571     0.004307
NI2018   NI        0.774091    0.365162    0.467988     0.004307
NI2019   NI        0.866133    0.276398    0.519722     0.004307
NI2020   NI        0.855545    0.337427    0.452659     0.004307
NI2021   NI        0.011083    0.371331    0.454570     0.004307
NI2022   NI        0.010381    0.410454    0.490894     0.004307
NI2023   NI        0.043442    0.372843    0.489451     0.004307
NI2024   NI        0.044710    0.411227    0.452796     0.004307
NI2025   NI        0.050470    0.340521    0.455230     0.004307
NI2026   NI        0.071672    0.405817    0.472071     0.004307
NI2027   NI        0.090985    0.343906    0.486974     0.004307
PD2028   PD        0.119921    0.411985    0.452602     0.005394
PD2029   PD        0.155235    0.376646    0.451834     0.005394
PD2030   PD        0.160394    0.412524    0.486825     0.005394
PD2031   PD        0.161720    0.377752    0.522660     0.005394
PD2032   PD        0.192257    0.410354    0.449323     0.005394
PD2033   PD        0.233427    0.376857    0.452141     0.005394
PD2034   PD        0.216759    0.432775    0.483348     0.005394
PD2035   PD        0.263004    0.375112    0.488846     0.005394
PD2036   PD        0.261583    0.406625    0.449214     0.005394
PD2037   PD        0.289995    0.382140    0.455697     0.005394
PD2038   PD        0.299776    0.408108    0.492874     0.005394
PD2039   PD        0.339274    0.369993    0.487688     0.005394
PD2040   PD        0.337028    0.408843    0.454183     0.005394
PD2041   PD        0.363052    0.395613    0.443213     0.005394
PD2042   PD        0.375542    0.408947    0.490132     0.005394
PD2043   PD        0.412585    0.369799    0.488112     0.005394
PD2044   PD        0.411470    0.408339    0.450578     0.005394
PD2045   PD        0.450015    0.371318    0.451165     0.005394
PD2046   PD        0.447467    0.409339    0.488455     0.005394
PD2047   PD        0.491596    0.362794    0.498645     0.005394
PD2048   PD        0.506999    0.416154    0.461053     0.005394
PD2049   PD        0.524872    0.370654    0.451241     0.005394
PD2050   PD        0.525018    0.408135    0.487947     0.005394
PD2051   PD        0.580019    0.373195    0.481351     0.005394
PD2052   PD        0.558956    0.408440    0.450820     0.005394
PD2053   PD        0.598763    0.371507    0.452446     0.005394
PD2054   PD        0.597963    0.410782    0.491241     0.005394
PD2055   PD        0.635690    0.372883    0.490042     0.005394
PD2056   PD        0.636728    0.411441    0.455787     0.005394
PD2057   PD        0.671644    0.371442    0.453526     0.005394
PD2058   PD        0.672214    0.409745    0.488395     0.005394
PD2059   PD        0.707596    0.373099    0.491961     0.005394
PD2060   PD        0.706949    0.409333    0.452909     0.005394
PD2061   PD        0.744690    0.373008    0.452040     0.005394
PD2062   PD        0.744765    0.410669    0.491147     0.005394
PD2063   PD        0.781504    0.372437    0.489275     0.005394
PD2064   PD        0.780937    0.410497    0.453748     0.005394
NI2065   NI        0.818101    0.374963    0.451104     0.004307
PD2066   PD        0.815664    0.411064    0.491338     0.005394
NI2067   NI        0.853649    0.374740    0.490437     0.004307
NI2068   NI        0.891237    0.412914    0.489683     0.004307
NI2069   NI        0.889405    0.375327    0.454695     0.004307
NI2070   NI        0.879711    0.417277    0.491633     0.004307
NI2071   NI        0.013276    0.448371    0.456357     0.004307
NI2072   NI        0.046208    0.493005    0.523548     0.004307
NI2073   NI        0.045065    0.445444    0.491153     0.004307
NI2074   NI        0.007028    0.526526    0.453197     0.004307
PD2075   PD        0.079329    0.448182    0.452560     0.005394
NI2076   NI        0.079605    0.483095    0.490738     0.004307
PD2077   PD        0.116291    0.448598    0.489984     0.005394
PD2078   PD        0.119497    0.484114    0.451991     0.005394
PD2079   PD        0.155214    0.450345    0.452191     0.005394
PD2080   PD        0.155254    0.484486    0.488875     0.005394
PD2081   PD        0.194574    0.458901    0.516777     0.005394
PD2082   PD        0.192136    0.485416    0.453305     0.005394
PD2083   PD        0.265838    0.477616    0.454403     0.005394
PD2084   PD        0.226301    0.485730    0.490613     0.005394
PD2085   PD        0.259083    0.454121    0.474949     0.005394
PD2086   PD        0.265573    0.495735    0.455094     0.005394
PD2087   PD        0.303013    0.439734    0.451611     0.005394
PD2088   PD        0.304028    0.484543    0.488382     0.005394
PD2089   PD        0.338739    0.444839    0.488513     0.005394
PD2090   PD        0.340543    0.483626    0.452441     0.005394
PD2091   PD        0.376171    0.444798    0.450487     0.005394
PD2092   PD        0.354643    0.480096    0.500115     0.005394
PD2093   PD        0.411042    0.447401    0.488219     0.005394
PD2094   PD        0.394346    0.491642    0.468266     0.005394
PD2095   PD        0.448278    0.445674    0.452791     0.005394
PD2096   PD        0.447912    0.482052    0.487731     0.005394
PD2097   PD        0.514512    0.441936    0.500418     0.005394
PD2098   PD        0.486735    0.484540    0.451938     0.005394
PD2099   PD        0.541274    0.454158    0.460720     0.005394
PD2100   PD        0.524445    0.485475    0.487898     0.005394
PD2101   PD        0.561588    0.457362    0.508587     0.005394
PD2102   PD        0.558774    0.483952    0.452853     0.005394
PD2103   PD        0.592906    0.445204    0.451075     0.005394
PD2104   PD        0.597778    0.481216    0.487229     0.005394
PD2105   PD        0.633290    0.445796    0.488900     0.005394
PD2106   PD        0.637088    0.497979    0.458872     0.005394
PD2107   PD        0.669387    0.444968    0.452552     0.005394
PD2108   PD        0.668217    0.479500    0.488143     0.005394
NI2109   NI        0.702439    0.421148    0.476379     0.004307
NI2110   NI        0.721982    0.487508    0.461606     0.004307
PD2111   PD        0.743910    0.445140    0.452375     0.005394
PD2112   PD        0.744232    0.482985    0.490515     0.005394
PD2113   PD        0.779641    0.446852    0.490520     0.005394
NI2114   NI        0.765428    0.465623    0.443528     0.004307
PD2115   PD        0.816985    0.448374    0.454010     0.005394
PD2116   PD        0.816963    0.484649    0.491333     0.005394
NI2117   NI        0.884168    0.452672    0.455197     0.004307
NI2118   NI        0.853861    0.485712    0.453290     0.004307
NI2119   NI        0.892126    0.447849    0.452415     0.004307
NI2120   NI        0.886831    0.487988    0.492159     0.004307
NI2121   NI        0.012226    0.514130    0.457736     0.004307
NI2122   NI        0.042875    0.521036    0.490696     0.004307
NI2123   NI        0.043943    0.555350    0.452882     0.004307
NI2124   NI        0.092067    0.507672    0.426683     0.004307
NI2125   NI        0.049684    0.528148    0.484483     0.004307
NI2126   NI        0.091252    0.532413    0.471485     0.004307
NI2127   NI        0.113308    0.573852    0.464625     0.004307
PD2128   PD        0.154147    0.522181    0.452214     0.005394
PD2129   PD        0.154614    0.559325    0.489443     0.005394
PD2130   PD        0.191033    0.521839    0.487520     0.005394
PD2131   PD        0.191150    0.559832    0.453744     0.005394
PD2132   PD        0.229041    0.524876    0.450995     0.005394
PD2133   PD        0.229064    0.556712    0.488448     0.005394
PD2134   PD        0.242943    0.532324    0.499696     0.005394
PD2135   PD        0.265142    0.558812    0.453402     0.005394
PD2136   PD        0.276193    0.540708    0.463434     0.005394
PD2137   PD        0.314110    0.582319    0.486208     0.005394
PD2138   PD        0.335381    0.526830    0.498447     0.005394
PD2139   PD        0.341948    0.558917    0.450677     0.005394
PD2140   PD        0.374675    0.519958    0.451893     0.005394
PD2141   PD        0.374979    0.558626    0.489309     0.005394
PD2142   PD        0.421091    0.525096    0.488062     0.005394
PD2143   PD        0.414496    0.555338    0.452928     0.005394
PD2144   PD        0.450376    0.524041    0.450403     0.005394
PD2145   PD        0.448948    0.555430    0.486618     0.005394
PD2146   PD        0.487373    0.519238    0.488269     0.005394
PD2147   PD        0.459309    0.553082    0.475718     0.005394
PD2148   PD        0.523601    0.519037    0.451466     0.005394
PD2149   PD        0.503239    0.579708    0.496132     0.005394
PD2150   PD        0.558866    0.518846    0.488477     0.005394
PD2151   PD        0.536580    0.547008    0.481124     0.005394
PD2152   PD        0.593825    0.518669    0.452025     0.005394
PD2153   PD        0.596057    0.555244    0.486626     0.005394
PD2154   PD        0.656295    0.526866    0.478660     0.005394
PD2155   PD        0.631732    0.556965    0.450776     0.005394
PD2156   PD        0.677626    0.532939    0.460494     0.005394
PD2157   PD        0.683019    0.567802    0.496015     0.005394
PD2158   PD        0.708899    0.522440    0.497904     0.005394
PD2159   PD        0.718118    0.565856    0.458370     0.005394
PD2160   PD        0.743709    0.523424    0.452078     0.005394
PD2161   PD        0.752214    0.562692    0.493770     0.005394
PD2162   PD        0.784339    0.519040    0.489220     0.005394
PD2163   PD        0.779194    0.556494    0.451703     0.005394
NI2164   NI        0.815846    0.522455    0.452771     0.004307
NI2165   NI        0.816206    0.556517    0.487748     0.004307
NI2166   NI        0.852472    0.521889    0.488789     0.004307
NI2167   NI        0.854575    0.559718    0.452074     0.004307
NI2168   NI        0.919268    0.489491    0.452006     0.004307
NI2169   NI        0.050140    0.630168    0.528184     0.004307
NI2170   NI        0.045524    0.632883    0.454170     0.004307
NI2171   NI        0.067305    0.579609    0.476536     0.004307
NI2172   NI        0.080843    0.630603    0.489289     0.004307
PD2173   PD        0.117766    0.596532    0.490537     0.005394
PD2174   PD        0.119499    0.631786    0.453960     0.005394
PD2175   PD        0.154410    0.595359    0.452463     0.005394
NI2176   NI        0.118864    0.668129    0.489467     0.004307
PD2177   PD        0.193031    0.594460    0.491845     0.005394
PD2178   PD        0.192038    0.631217    0.453741     0.005394
PD2179   PD        0.230410    0.594243    0.452859     0.005394
PD2180   PD        0.226349    0.631232    0.492106     0.005394
PD2181   PD        0.265355    0.594607    0.488489     0.005394
PD2182   PD        0.264809    0.630233    0.451893     0.005394
PD2183   PD        0.303360    0.595508    0.451111     0.005394
PD2184   PD        0.301254    0.631302    0.487930     0.005394
PD2185   PD        0.338914    0.594070    0.487158     0.005394
PD2186   PD        0.345043    0.617979    0.454714     0.005394
PD2187   PD        0.373274    0.594904    0.451300     0.005394
PD2188   PD        0.375875    0.631877    0.488526     0.005394
PD2189   PD        0.414519    0.592714    0.490031     0.005394
PD2190   PD        0.394205    0.655509    0.459447     0.005394
PD2191   PD        0.450141    0.592682    0.453111     0.005394
PD2192   PD        0.461515    0.612218    0.498819     0.005394
PD2193   PD        0.485587    0.591748    0.488984     0.005394
PD2194   PD        0.481384    0.652748    0.442975     0.005394
PD2195   PD        0.523340    0.595069    0.452223     0.005394
PD2196   PD        0.520629    0.630498    0.488503     0.005394
PD2197   PD        0.557718    0.590734    0.487105     0.005394
PD2198   PD        0.558886    0.630743    0.450641     0.005394
PD2199   PD        0.594365    0.592082    0.450832     0.005394
NI2200   NI        0.578556    0.662816    0.481904     0.004307
PD2201   PD        0.589776    0.604663    0.478767     0.005394
NI2202   NI        0.647050    0.642933    0.462467     0.004307
PD2203   PD        0.685799    0.604778    0.459551     0.005394
PD2204   PD        0.639804    0.613093    0.461642     0.005394
PD2205   PD        0.722398    0.602567    0.493962     0.005394
PD2206   PD        0.705804    0.629470    0.452251     0.005394
NI2207   NI        0.755279    0.600365    0.456442     0.004307
NI2208   NI        0.751603    0.637389    0.495700     0.004307
NI2209   NI        0.791420    0.601071    0.494140     0.004307
NI2210   NI        0.790130    0.636053    0.456409     0.004307
NI2211   NI        0.816356    0.593767    0.451575     0.004307
NI2212   NI        0.810769    0.651832    0.495482     0.004307
NI2213   NI        0.843395    0.596604    0.489041     0.004307
NI2214   NI        0.853018    0.629860    0.454746     0.004307
NI2215   NI        0.083785    0.665585    0.453708     0.004307
NI2216   NI        0.083614    0.705704    0.488676     0.004307
NI2217   NI        0.082397    0.698050    0.482812     0.004307
NI2218   NI        0.078947    0.697948    0.417368     0.004307
NI2219   NI        0.117166    0.684923    0.447668     0.004307
NI2220   NI        0.132382    0.702771    0.492699     0.004307
PD2221   PD        0.190258    0.668469    0.488273     0.005394
PD2222   PD        0.191696    0.706620    0.452080     0.005394
PD2223   PD        0.228021    0.668574    0.451711     0.005394
NI2224   NI        0.197456    0.718007    0.476128     0.004307
PD2225   PD        0.264498    0.668920    0.489299     0.005394
PD2226   PD        0.265804    0.704350    0.452351     0.005394
PD2227   PD        0.304248    0.668511    0.451821     0.005394
NI2228   NI        0.307503    0.714579    0.508801     0.004307
NI2229   NI        0.313179    0.676211    0.475933     0.004307
PD2230   PD        0.340119    0.705705    0.452893     0.005394
PD2231   PD        0.379554    0.668847    0.450577     0.005394
PD2232   PD        0.377998    0.706375    0.489838     0.005394
PD2233   PD        0.412805    0.668895    0.490679     0.005394
PD2234   PD        0.411073    0.703781    0.450817     0.005394
PD2235   PD        0.446895    0.674707    0.454563     0.005394
PD2236   PD        0.447125    0.702981    0.490625     0.005394
PD2237   PD        0.493094    0.667125    0.464234     0.005394
PD2238   PD        0.485813    0.706614    0.453610     0.005394
PD2239   PD        0.529203    0.664187    0.428644     0.005394
NI2240   NI        0.537756    0.717724    0.496190     0.004307
NI2241   NI        0.581156    0.690581    0.497106     0.004307
PD2242   PD        0.559130    0.700623    0.451693     0.005394
PD2243   PD        0.597029    0.667668    0.452140     0.005394
PD2244   PD        0.595400    0.702520    0.489013     0.005394
PD2245   PD        0.630234    0.665223    0.488988     0.005394
PD2246   PD        0.632984    0.702956    0.452394     0.005394
NI2247   NI        0.662646    0.692209    0.463226     0.004307
NI2248   NI        0.681862    0.710466    0.502496     0.004307
NI2249   NI        0.719283    0.674857    0.501257     0.004307
NI2250   NI        0.717466    0.723845    0.426863     0.004307
NI2251   NI        0.742852    0.663733    0.452478     0.004307
NI2252   NI        0.737186    0.735328    0.521397     0.004307
NI2253   NI        0.785284    0.674886    0.491363     0.004307
NI2254   NI        0.771810    0.705025    0.455434     0.004307
NI2255   NI        0.820108    0.669317    0.450201     0.004307
NI2256   NI        0.828637    0.695748    0.489305     0.004307
NI2257   NI        0.119524    0.740305    0.491483     0.004307
NI2258   NI        0.155268    0.741990    0.452785     0.004307
NI2259   NI        0.152654    0.775183    0.486717     0.004307
NI2260   NI        0.181650    0.772036    0.479161     0.004307
NI2261   NI        0.189004    0.779606    0.452337     0.004307
NI2262   NI        0.223134    0.760991    0.478106     0.004307
NI2263   NI        0.225082    0.801405    0.503520     0.004307
PD2264   PD        0.263397    0.741680    0.489473     0.005394
NI2265   NI        0.264376    0.778498    0.451250     0.004307
PD2266   PD        0.298915    0.740714    0.452508     0.005394
NI2267   NI        0.304043    0.766300    0.509510     0.004307
PD2268   PD        0.340493    0.741504    0.489052     0.005394
PD2269   PD        0.337082    0.778973    0.451371     0.005394
PD2270   PD        0.376029    0.741755    0.453629     0.005394
NI2271   NI        0.357268    0.787403    0.494836     0.004307
NI2272   NI        0.419737    0.764398    0.486334     0.004307
PD2273   PD        0.413600    0.778049    0.450922     0.005394
PD2274   PD        0.449188    0.742198    0.453482     0.005394
NI2275   NI        0.472239    0.789121    0.506124     0.004307
PD2276   PD        0.484762    0.743613    0.487336     0.005394
NI2277   NI        0.467673    0.775033    0.489105     0.004307
PD2278   PD        0.523269    0.742111    0.451214     0.005394
NI2279   NI        0.521802    0.778128    0.491176     0.004307
NI2280   NI        0.593656    0.776777    0.491352     0.004307
PD2281   PD        0.559006    0.778038    0.453753     0.005394
NI2282   NI        0.602343    0.751254    0.486663     0.004307
NI2283   NI        0.594268    0.811215    0.455548     0.004307
NI2284   NI        0.651676    0.747265    0.483788     0.004307
NI2285   NI        0.630275    0.778281    0.453234     0.004307
NI2286   NI        0.668811    0.740258    0.455019     0.004307
NI2287   NI        0.664648    0.776544    0.492237     0.004307
NI2288   NI        0.702983    0.742314    0.492214     0.004307
NI2289   NI        0.705834    0.777077    0.453603     0.004307
NI2290   NI        0.735766    0.740328    0.464053     0.004307
NI2291   NI        0.739048    0.778957    0.495290     0.004307
NI2292   NI        0.777551    0.742035    0.491722     0.004307
NI2293   NI        0.203520    0.817872    0.478740     0.004307
NI2294   NI        0.228727    0.816106    0.454491     0.004307
NI2295   NI        0.262865    0.810967    0.492104     0.004307
NI2296   NI        0.229998    0.846658    0.415132     0.004307
NI2297   NI        0.299928    0.814733    0.453286     0.004307
NI2298   NI        0.299756    0.847400    0.489882     0.004307
NI2299   NI        0.336825    0.814849    0.489788     0.004307
NI2300   NI        0.347024    0.830025    0.464290     0.004307
NI2301   NI        0.374414    0.807000    0.451433     0.004307
NI2302   NI        0.359502    0.848334    0.476437     0.004307
NI2303   NI        0.411965    0.813876    0.489069     0.004307
NI2304   NI        0.420686    0.867716    0.460148     0.004307
NI2305   NI        0.433033    0.821643    0.442500     0.004307
NI2306   NI        0.450129    0.850997    0.492312     0.004307
NI2307   NI        0.484909    0.815393    0.491708     0.004307
NI2308   NI        0.483317    0.866805    0.459054     0.004307
PD2309   PD        0.522262    0.813822    0.454107     0.005394
NI2310   NI        0.521689    0.845261    0.491966     0.004307
NI2311   NI        0.557838    0.814599    0.489885     0.004307
NI2312   NI        0.557748    0.850984    0.452406     0.004307
NI2313   NI        0.587870    0.818386    0.457835     0.004307
NI2314   NI        0.582548    0.852416    0.491872     0.004307
NI2315   NI        0.628922    0.812694    0.489592     0.004307
NI2316   NI        0.631567    0.850472    0.454019     0.004307
NI2317   NI        0.699379    0.813066    0.491432     0.004307
NI2318   NI        0.711244    0.865237    0.493736     0.004307
NI2319   NI        0.374227    0.890372    0.452596     0.004307
NI2320   NI        0.410597    0.886758    0.490571     0.004307
NI2321   NI        0.456900    0.905010    0.474786     0.004307
NI2322   NI        0.495404    0.874267    0.481615     0.004307
NI2323   NI        0.487586    0.917951    0.455839     0.004307
NI2324   NI        0.264044    0.049380    0.529112     0.004307
NI2325   NI        0.282003    0.037566    0.577789     0.004307
NI2326   NI        0.341403    0.045716    0.527547     0.004307
NI2327   NI        0.369873    0.066101    0.574824     0.004307
NI2328   NI        0.412520    0.045835    0.527690     0.004307
NI2329   NI        0.413052    0.044612    0.527273     0.004307
NI2330   NI        0.414571    0.038503    0.572826     0.004307
NI2331   NI        0.486977    0.045993    0.525187     0.004307
NI2332   NI        0.548080    0.027370    0.572366     0.004307
NI2333   NI        0.560039    0.043939    0.526544     0.004307
NI2334   NI        0.596868    0.041947    0.564345     0.004307
NI2335   NI        0.634713    0.042095    0.527980     0.004307
NI2336   NI        0.190362    0.122327    0.524524     0.004307
NI2337   NI        0.238107    0.118580    0.488721     0.004307
NI2338   NI        0.227668    0.120119    0.561468     0.004307
NI2339   NI        0.265364    0.082592    0.562342     0.004307
NI2340   NI        0.264702    0.119800    0.528031     0.004307
NI2341   NI        0.319058    0.111675    0.522151     0.004307
PD2342   PD        0.301644    0.120191    0.566057     0.005394
NI2343   NI        0.337080    0.084901    0.563925     0.004307
PD2344   PD        0.339237    0.120218    0.524480     0.005394
PD2345   PD        0.376599    0.081285    0.528413     0.005394
PD2346   PD        0.374963    0.119925    0.562423     0.005394
PD2347   PD        0.413236    0.084317    0.562885     0.005394
NI2348   NI        0.397904    0.108289    0.519022     0.004307
NI2349   NI        0.449459    0.080478    0.526824     0.004307
PD2350   PD        0.450247    0.118411    0.563105     0.005394
NI2351   NI        0.494103    0.094232    0.544815     0.004307
PD2352   PD        0.487583    0.116767    0.526319     0.005394
PD2353   PD        0.525276    0.080573    0.527013     0.005394
PD2354   PD        0.522053    0.117851    0.564534     0.005394
NI2355   NI        0.560781    0.118948    0.592451     0.004307
NI2356   NI        0.574676    0.111921    0.501836     0.004307
NI2357   NI        0.596341    0.079075    0.527143     0.004307
PD2358   PD        0.598987    0.115523    0.565538     0.005394
NI2359   NI        0.634010    0.078614    0.562439     0.004307
PD2360   PD        0.635044    0.114626    0.527186     0.005394
NI2361   NI        0.671848    0.078438    0.526428     0.004307
NI2362   NI        0.692070    0.147623    0.554328     0.004307
NI2363   NI        0.709847    0.115024    0.526544     0.004307
NI2364   NI        0.112113    0.208883    0.536476     0.004307
NI2365   NI        0.153877    0.157868    0.522852     0.004307
NI2366   NI        0.157480    0.193706    0.558392     0.004307
NI2367   NI        0.176061    0.151727    0.568635     0.004307
PD2368   PD        0.192663    0.194158    0.525698     0.005394
PD2369   PD        0.228432    0.156507    0.525302     0.005394
PD2370   PD        0.227972    0.192567    0.561382     0.005394
PD2371   PD        0.265617    0.155867    0.561884     0.005394
PD2372   PD        0.266464    0.192305    0.526225     0.005394
PD2373   PD        0.301772    0.155020    0.526785     0.005394
PD2374   PD        0.303312    0.193767    0.563210     0.005394
PD2375   PD        0.339128    0.157590    0.563500     0.005394
PD2376   PD        0.340162    0.191802    0.527123     0.005394
PD2377   PD        0.378250    0.153956    0.525808     0.005394
PD2378   PD        0.377698    0.191260    0.562187     0.005394
PD2379   PD        0.414297    0.156327    0.563942     0.005394
PD2380   PD        0.414063    0.191526    0.525600     0.005394
PD2381   PD        0.450089    0.158364    0.523652     0.005394
PD2382   PD        0.451131    0.191121    0.561259     0.005394
NI2383   NI        0.482384    0.148468    0.584510     0.004307
PD2384   PD        0.488397    0.191274    0.525538     0.005394
PD2385   PD        0.524272    0.152330    0.526654     0.005394
PD2386   PD        0.513713    0.190898    0.567665     0.005394
PD2387   PD        0.559062    0.153529    0.564368     0.005394
PD2388   PD        0.561574    0.189664    0.525652     0.005394
NI2389   NI        0.595419    0.121758    0.559015     0.004307
PD2390   PD        0.597640    0.188529    0.564418     0.005394
PD2391   PD        0.636383    0.153220    0.563826     0.005394
NI2392   NI        0.605177    0.174598    0.537861     0.004307
PD2393   PD        0.672225    0.151572    0.528359     0.005394
PD2394   PD        0.671648    0.190306    0.563109     0.005394
NI2395   NI        0.709147    0.152338    0.562352     0.004307
PD2396   PD        0.708527    0.189282    0.526634     0.005394
NI2397   NI        0.716195    0.160380    0.509830     0.004307
NI2398   NI        0.710082    0.189013    0.600489     0.004307
NI2399   NI        0.783402    0.189248    0.525699     0.004307
NI2400   NI        0.049031    0.268126    0.531014     0.004307
NI2401   NI        0.081064    0.230392    0.524996     0.004307
NI2402   NI        0.052199    0.230206    0.562951     0.004307
NI2403   NI        0.104557    0.232784    0.550705     0.004307
NI2404   NI        0.116595    0.271770    0.514791     0.004307
NI2405   NI        0.148914    0.243819    0.535782     0.004307
PD2406   PD        0.155448    0.267261    0.561868     0.005394
PD2407   PD        0.192772    0.228776    0.563616     0.005394
PD2408   PD        0.192305    0.267057    0.526798     0.005394
NI2409   NI        0.220274    0.230699    0.528352     0.004307
PD2410   PD        0.229573    0.265172    0.563309     0.005394
NI2411   NI        0.236895    0.235230    0.593951     0.004307
PD2412   PD        0.232682    0.264508    0.554261     0.005394
PD2413   PD        0.302883    0.230822    0.525421     0.005394
PD2414   PD        0.302823    0.265446    0.563551     0.005394
PD2415   PD        0.325328    0.239306    0.538322     0.005394
PD2416   PD        0.368070    0.259815    0.558560     0.005394
PD2417   PD        0.375864    0.229562    0.524780     0.005394
PD2418   PD        0.375907    0.264989    0.562377     0.005394
PD2419   PD        0.415484    0.227956    0.563990     0.005394
PD2420   PD        0.413817    0.263009    0.524757     0.005394
PD2421   PD        0.450501    0.227421    0.525026     0.005394
PD2422   PD        0.449520    0.262729    0.563996     0.005394
PD2423   PD        0.486573    0.228121    0.563254     0.005394
PD2424   PD        0.488745    0.265601    0.523995     0.005394
PD2425   PD        0.520262    0.267453    0.557083     0.005394
PD2426   PD        0.524523    0.262377    0.564123     0.005394
PD2427   PD        0.561318    0.226187    0.563790     0.005394
PD2428   PD        0.560266    0.261967    0.525857     0.005394
PD2429   PD        0.598563    0.226241    0.526749     0.005394
PD2430   PD        0.598171    0.262565    0.563258     0.005394
PD2431   PD        0.634905    0.226412    0.562368     0.005394
PD2432   PD        0.635149    0.261589    0.527319     0.005394
PD2433   PD        0.672155    0.225885    0.524969     0.005394
PD2434   PD        0.672366    0.260399    0.564319     0.005394
PD2435   PD        0.710383    0.224862    0.565216     0.005394
PD2436   PD        0.708133    0.261427    0.526605     0.005394
NI2437   NI        0.734148    0.247684    0.531087     0.004307
PD2438   PD        0.745723    0.263250    0.564714     0.005394
NI2439   NI        0.783630    0.228175    0.563885     0.004307
NI2440   NI        0.783012    0.264237    0.526923     0.004307
NI2441   NI        0.819883    0.224481    0.527900     0.004307
NI2442   NI        0.820298    0.264986    0.563867     0.004307
NI2443   NI        0.855350    0.255159    0.537595     0.004307
NI2444   NI        0.053296    0.303462    0.563948     0.004307
NI2445   NI        0.046992    0.340959    0.530383     0.004307
NI2446   NI        0.083067    0.306336    0.525314     0.004307
NI2447   NI        0.084647    0.340206    0.565028     0.004307
NI2448   NI        0.108412    0.275508    0.550815     0.004307
NI2449   NI        0.092126    0.316632    0.530497     0.004307
PD2450   PD        0.157867    0.304610    0.526851     0.005394
PD2451   PD        0.156096    0.341313    0.560714     0.005394
PD2452   PD        0.191972    0.302012    0.565584     0.005394
PD2453   PD        0.193647    0.336568    0.528365     0.005394
PD2454   PD        0.227639    0.301442    0.526359     0.005394
PD2455   PD        0.230232    0.339053    0.562996     0.005394
PD2456   PD        0.264650    0.301029    0.563449     0.005394
PD2457   PD        0.267135    0.335148    0.526625     0.005394
PD2458   PD        0.301517    0.302380    0.526606     0.005394
PD2459   PD        0.302496    0.338631    0.562361     0.005394
PD2460   PD        0.339687    0.301430    0.563337     0.005394
PD2461   PD        0.339995    0.335448    0.525390     0.005394
PD2462   PD        0.380334    0.311389    0.552107     0.005394
PD2463   PD        0.352755    0.347760    0.569498     0.005394
PD2464   PD        0.413968    0.301837    0.562228     0.005394
PD2465   PD        0.413096    0.336908    0.525842     0.005394
PD2466   PD        0.453134    0.301404    0.526129     0.005394
PD2467   PD        0.449517    0.337517    0.563100     0.005394
PD2468   PD        0.487037    0.299640    0.562373     0.005394
PD2469   PD        0.483182    0.346481    0.546430     0.005394
PD2470   PD        0.525663    0.300603    0.526004     0.005394
PD2471   PD        0.509297    0.345681    0.587739     0.005394
PD2472   PD        0.564313    0.322375    0.573332     0.005394
PD2473   PD        0.563900    0.336761    0.525714     0.005394
PD2474   PD        0.597937    0.299455    0.527853     0.005394
PD2475   PD        0.597646    0.335383    0.563927     0.005394
PD2476   PD        0.635317    0.298681    0.562684     0.005394
PD2477   PD        0.635232    0.334866    0.521361     0.005394
PD2478   PD        0.672058    0.299471    0.526595     0.005394
PD2479   PD        0.672861    0.336977    0.563759     0.005394
NI2480   NI        0.732734    0.289402    0.551801     0.004307
PD2481   PD        0.708355    0.337499    0.527196     0.005394
PD2482   PD        0.746151    0.298856    0.527878     0.005394
PD2483   PD        0.747106    0.336554    0.564361     0.005394
NI2484   NI        0.782279    0.301001    0.564250     0.004307
PD2485   PD        0.783387    0.336888    0.527499     0.005394
NI2486   NI        0.820374    0.298663    0.525638     0.004307
NI2487   NI        0.819262    0.335819    0.564154     0.004307
NI2488   NI        0.857189    0.300613    0.563164     0.004307
NI2489   NI        0.864154    0.318486    0.546360     0.004307
NI2490   NI        0.043975    0.377146    0.565919     0.004307
NI2491   NI        0.042436    0.412775    0.527000     0.004307
NI2492   NI        0.080816    0.357564    0.536013     0.004307
NI2493   NI        0.080662    0.412836    0.563003     0.004307
PD2494   PD        0.119907    0.376964    0.560828     0.005394
NI2495   NI        0.107820    0.390233    0.502381     0.004307
NI2496   NI        0.150077    0.411284    0.495632     0.004307
NI2497   NI        0.146053    0.399218    0.592291     0.004307
PD2498   PD        0.192168    0.375630    0.563872     0.005394
PD2499   PD        0.193742    0.413179    0.526033     0.005394
PD2500   PD        0.230369    0.373188    0.529012     0.005394
PD2501   PD        0.230335    0.411264    0.565438     0.005394
PD2502   PD        0.266019    0.373950    0.566070     0.005394
PD2503   PD        0.267424    0.409370    0.528760     0.005394
PD2504   PD        0.302854    0.372371    0.527272     0.005394
PD2505   PD        0.300751    0.412599    0.563538     0.005394
PD2506   PD        0.336981    0.373949    0.565015     0.005394
PD2507   PD        0.339654    0.409661    0.526258     0.005394
PD2508   PD        0.378688    0.371773    0.525923     0.005394
PD2509   PD        0.375417    0.411424    0.563883     0.005394
PD2510   PD        0.412787    0.373889    0.561804     0.005394
PD2511   PD        0.413116    0.411273    0.526229     0.005394
PD2512   PD        0.450946    0.375197    0.523446     0.005394
PD2513   PD        0.449101    0.411426    0.562812     0.005394
PD2514   PD        0.488431    0.369286    0.556369     0.005394
PD2515   PD        0.486139    0.409738    0.523958     0.005394
PD2516   PD        0.522250    0.372573    0.526092     0.005394
PD2517   PD        0.520848    0.408815    0.562587     0.005394
PD2518   PD        0.559337    0.370296    0.563949     0.005394
PD2519   PD        0.559373    0.409831    0.528147     0.005394
PD2520   PD        0.598219    0.373498    0.524997     0.005394
PD2521   PD        0.595703    0.409071    0.564548     0.005394
PD2522   PD        0.633627    0.374462    0.564064     0.005394
PD2523   PD        0.633837    0.408990    0.527464     0.005394
PD2524   PD        0.671075    0.371464    0.526154     0.005394
PD2525   PD        0.671469    0.409389    0.562354     0.005394
PD2526   PD        0.709247    0.372755    0.563287     0.005394
PD2527   PD        0.707144    0.408485    0.526467     0.005394
PD2528   PD        0.746467    0.372082    0.527695     0.005394
PD2529   PD        0.746246    0.409205    0.563261     0.005394
PD2530   PD        0.781008    0.373026    0.565104     0.005394
PD2531   PD        0.781525    0.409355    0.525718     0.005394
NI2532   NI        0.856019    0.410380    0.526412     0.004307
PD2533   PD        0.817429    0.410644    0.562883     0.005394
NI2534   NI        0.854795    0.376721    0.564859     0.004307
NI2535   NI        0.844950    0.406860    0.525138     0.004307
NI2536   NI        0.004919    0.445290    0.526142     0.004307
NI2537   NI        0.060544    0.423628    0.569984     0.004307
NI2538   NI        0.043503    0.484951    0.527654     0.004307
NI2539   NI        0.078478    0.448532    0.527980     0.004307
NI2540   NI        0.083513    0.484059    0.565618     0.004307
PD2541   PD        0.117222    0.448756    0.563549     0.005394
NI2542   NI        0.134202    0.478439    0.551036     0.004307
PD2543   PD        0.129890    0.479169    0.531067     0.005394
NI2544   NI        0.152391    0.476375    0.574668     0.004307
NI2545   NI        0.164814    0.445289    0.549832     0.004307
PD2546   PD        0.189698    0.482475    0.526679     0.005394
PD2547   PD        0.230493    0.449168    0.525510     0.005394
PD2548   PD        0.191760    0.447880    0.564062     0.005394
PD2549   PD        0.263263    0.448794    0.564373     0.005394
PD2550   PD        0.265237    0.483979    0.526428     0.005394
PD2551   PD        0.301218    0.447113    0.525912     0.005394
PD2552   PD        0.301433    0.483170    0.564347     0.005394
PD2553   PD        0.336743    0.445525    0.566276     0.005394
PD2554   PD        0.337832    0.484325    0.526725     0.005394
PD2555   PD        0.377993    0.446341    0.527017     0.005394
PD2556   PD        0.376553    0.484242    0.562867     0.005394
PD2557   PD        0.411874    0.445423    0.562357     0.005394
PD2558   PD        0.411605    0.483384    0.526118     0.005394
PD2559   PD        0.449828    0.446662    0.524986     0.005394
PD2560   PD        0.450498    0.483346    0.564840     0.005394
PD2561   PD        0.486415    0.448582    0.561907     0.005394
PD2562   PD        0.485603    0.483461    0.525280     0.005394
PD2563   PD        0.522525    0.448249    0.523866     0.005394
PD2564   PD        0.520446    0.483912    0.564059     0.005394
PD2565   PD        0.559083    0.446117    0.560619     0.005394
PD2566   PD        0.563197    0.498513    0.538818     0.005394
PD2567   PD        0.597629    0.468621    0.536550     0.005394
PD2568   PD        0.604322    0.501291    0.571558     0.005394
PD2569   PD        0.632794    0.445031    0.561839     0.005394
PD2570   PD        0.638284    0.489823    0.526710     0.005394
PD2571   PD        0.669986    0.444624    0.525520     0.005394
PD2572   PD        0.670720    0.487004    0.564221     0.005394
PD2573   PD        0.706249    0.442525    0.564005     0.005394
PD2574   PD        0.705402    0.482181    0.526851     0.005394
PD2575   PD        0.742958    0.446651    0.526604     0.005394
NI2576   NI        0.772542    0.490218    0.548373     0.004307
NI2577   NI        0.775929    0.443972    0.582522     0.004307
PD2578   PD        0.780790    0.483415    0.527023     0.005394
PD2579   PD        0.818195    0.446842    0.526673     0.005394
NI2580   NI        0.817082    0.483571    0.563996     0.004307
NI2581   NI        0.889365    0.411177    0.563755     0.004307
NI2582   NI        0.818340    0.475281    0.543975     0.004307
NI2583   NI        0.892461    0.488453    0.564676     0.004307
NI2584   NI        0.049933    0.522593    0.560554     0.004307
NI2585   NI        0.046983    0.558710    0.526061     0.004307
NI2586   NI        0.080295    0.523721    0.524248     0.004307
NI2587   NI        0.081568    0.558578    0.564611     0.004307
PD2588   PD        0.116708    0.521865    0.562167     0.005394
PD2589   PD        0.117524    0.558968    0.526957     0.005394
PD2590   PD        0.155515    0.519943    0.524438     0.005394
PD2591   PD        0.155789    0.556488    0.561120     0.005394
PD2592   PD        0.191786    0.521523    0.565143     0.005394
PD2593   PD        0.191129    0.555770    0.526599     0.005394
PD2594   PD        0.227819    0.520898    0.527354     0.005394
PD2595   PD        0.228846    0.556580    0.561890     0.005394
PD2596   PD        0.264864    0.519933    0.563939     0.005394
PD2597   PD        0.263698    0.557390    0.524871     0.005394
PD2598   PD        0.290997    0.547188    0.514156     0.005394
PD2599   PD        0.303513    0.556049    0.561880     0.005394
PD2600   PD        0.338872    0.519665    0.563608     0.005394
PD2601   PD        0.339195    0.557499    0.526296     0.005394
PD2602   PD        0.374856    0.520697    0.525932     0.005394
PD2603   PD        0.376671    0.555452    0.562998     0.005394
PD2604   PD        0.413204    0.519049    0.562891     0.005394
PD2605   PD        0.416572    0.555657    0.526298     0.005394
PD2606   PD        0.448174    0.521387    0.528099     0.005394
PD2607   PD        0.449871    0.555243    0.562507     0.005394
PD2608   PD        0.484769    0.520391    0.563643     0.005394
PD2609   PD        0.484810    0.556034    0.524826     0.005394
PD2610   PD        0.521296    0.517970    0.526437     0.005394
PD2611   PD        0.534588    0.573008    0.559745     0.005394
PD2612   PD        0.572486    0.542080    0.566291     0.005394
PD2613   PD        0.557571    0.557321    0.524429     0.005394
PD2614   PD        0.606539    0.531138    0.530077     0.005394
PD2615   PD        0.631413    0.555886    0.525705     0.005394
PD2616   PD        0.643795    0.525374    0.561797     0.005394
PD2617   PD        0.640854    0.555860    0.519565     0.005394
PD2618   PD        0.685572    0.509718    0.550817     0.005394
PD2619   PD        0.668393    0.558992    0.564983     0.005394
NI2620   NI        0.705970    0.531511    0.563232     0.004307
NI2621   NI        0.720699    0.565124    0.530335     0.004307
PD2622   PD        0.741460    0.518756    0.525392     0.005394
NI2623   NI        0.778504    0.585973    0.559721     0.004307
NI2624   NI        0.816499    0.522645    0.600649     0.004307
NI2625   NI        0.781176    0.556433    0.525784     0.004307
NI2626   NI        0.817041    0.521970    0.525874     0.004307
NI2627   NI        0.821862    0.551681    0.563411     0.004307
NI2628   NI        0.887334    0.561996    0.563115     0.004307
NI2629   NI        0.853863    0.556126    0.525610     0.004307
NI2630   NI        0.043869    0.594319    0.564376     0.004307
NI2631   NI        0.010626    0.630284    0.560528     0.004307
NI2632   NI        0.082178    0.596787    0.525243     0.004307
NI2633   NI        0.081905    0.633237    0.564693     0.004307
NI2634   NI        0.117646    0.595656    0.563530     0.004307
NI2635   NI        0.091087    0.609796    0.551557     0.004307
PD2636   PD        0.155410    0.594433    0.527639     0.005394
PD2637   PD        0.154841    0.629884    0.563487     0.005394
PD2638   PD        0.192759    0.592704    0.561568     0.005394
PD2639   PD        0.190193    0.631591    0.526987     0.005394
PD2640   PD        0.230595    0.594160    0.527176     0.005394
PD2641   PD        0.227086    0.631401    0.562103     0.005394
PD2642   PD        0.269049    0.593062    0.561233     0.005394
PD2643   PD        0.265419    0.629147    0.525063     0.005394
NI2644   NI        0.290889    0.615807    0.537988     0.004307
PD2645   PD        0.300361    0.630962    0.561286     0.005394
PD2646   PD        0.301565    0.592930    0.598214     0.005394
PD2647   PD        0.339889    0.630449    0.527911     0.005394
PD2648   PD        0.377486    0.594381    0.527015     0.005394
PD2649   PD        0.372961    0.663686    0.590295     0.005394
PD2650   PD        0.412235    0.593783    0.561648     0.005394
PD2651   PD        0.413058    0.630078    0.525804     0.005394
PD2652   PD        0.429004    0.603875    0.537830     0.005394
PD2653   PD        0.446200    0.628921    0.563838     0.005394
PD2654   PD        0.485095    0.592922    0.562930     0.005394
PD2655   PD        0.483398    0.626421    0.525923     0.005394
PD2656   PD        0.531222    0.581898    0.538505     0.005394
PD2657   PD        0.541542    0.622371    0.562632     0.005394
PD2658   PD        0.556037    0.593215    0.559862     0.005394
PD2659   PD        0.549322    0.649637    0.541703     0.005394
PD2660   PD        0.593845    0.590251    0.525688     0.005394
PD2661   PD        0.595672    0.631878    0.559284     0.005394
PD2662   PD        0.629259    0.592951    0.561468     0.005394
NI2663   NI        0.633108    0.641799    0.550692     0.004307
PD2664   PD        0.666279    0.595615    0.525676     0.005394
PD2665   PD        0.666542    0.629139    0.561623     0.005394
PD2666   PD        0.702362    0.597068    0.560503     0.005394
PD2667   PD        0.704211    0.632681    0.525229     0.005394
NI2668   NI        0.757163    0.595767    0.528459     0.004307
NI2669   NI        0.740213    0.631763    0.562876     0.004307
NI2670   NI        0.777257    0.595257    0.561922     0.004307
NI2671   NI        0.791665    0.636234    0.528008     0.004307
NI2672   NI        0.801027    0.625993    0.536236     0.004307
NI2673   NI        0.787553    0.624195    0.575693     0.004307
NI2674   NI        0.846612    0.594692    0.558996     0.004307
NI2675   NI        0.850639    0.632108    0.524794     0.004307
NI2676   NI        0.081790    0.669430    0.525806     0.004307
NI2677   NI        0.115365    0.702086    0.598287     0.004307
NI2678   NI        0.085529    0.700206    0.498938     0.004307
PD2679   PD        0.152820    0.670165    0.526158     0.005394
NI2680   NI        0.154487    0.705983    0.563744     0.004307
NI2681   NI        0.191570    0.668869    0.562175     0.004307
PD2682   PD        0.192300    0.705272    0.526614     0.005394
NI2683   NI        0.217207    0.633747    0.505874     0.004307
NI2684   NI        0.227833    0.702674    0.559585     0.004307
PD2685   PD        0.265330    0.667914    0.561959     0.005394
PD2686   PD        0.264511    0.702619    0.527343     0.005394
PD2687   PD        0.303340    0.666319    0.523972     0.005394
PD2688   PD        0.301783    0.702516    0.560328     0.005394
PD2689   PD        0.338527    0.666954    0.564198     0.005394
NI2690   NI        0.355205    0.716885    0.530848     0.004307
NI2691   NI        0.377930    0.674948    0.519569     0.004307
PD2692   PD        0.373809    0.703177    0.561729     0.005394
PD2693   PD        0.410985    0.667516    0.562988     0.005394
PD2694   PD        0.414967    0.700682    0.525562     0.005394
PD2695   PD        0.446513    0.664740    0.524959     0.005394
PD2696   PD        0.464622    0.706030    0.535427     0.005394
NI2697   NI        0.478266    0.680006    0.593214     0.004307
PD2698   PD        0.481925    0.703467    0.525372     0.005394
PD2699   PD        0.530688    0.658725    0.523807     0.005394
PD2700   PD        0.516949    0.700506    0.562932     0.005394
PD2701   PD        0.566788    0.689413    0.570209     0.005394
PD2702   PD        0.560797    0.703107    0.524891     0.005394
PD2703   PD        0.596275    0.670624    0.528325     0.005394
PD2704   PD        0.593661    0.701052    0.563957     0.005394
PD2705   PD        0.632567    0.667094    0.562567     0.005394
NI2706   NI        0.630640    0.702760    0.527637     0.004307
PD2707   PD        0.668549    0.667035    0.525048     0.005394
NI2708   NI        0.669946    0.703491    0.563708     0.004307
NI2709   NI        0.719346    0.695814    0.574948     0.004307
NI2710   NI        0.724192    0.710515    0.529894     0.004307
NI2711   NI        0.753433    0.665349    0.533872     0.004307
NI2712   NI        0.741785    0.705411    0.564691     0.004307
NI2713   NI        0.797509    0.668182    0.560309     0.004307
NI2714   NI        0.777527    0.705230    0.527598     0.004307
NI2715   NI        0.802450    0.680044    0.535599     0.004307
NI2716   NI        0.154569    0.741853    0.527881     0.004307
NI2717   NI        0.190742    0.743144    0.563235     0.004307
NI2718   NI        0.178492    0.807521    0.514952     0.004307
NI2719   NI        0.220682    0.726887    0.512064     0.004307
NI2720   NI        0.228550    0.779418    0.552524     0.004307
NI2721   NI        0.226111    0.739160    0.524339     0.004307
NI2722   NI        0.227162    0.812782    0.528267     0.004307
PD2723   PD        0.300973    0.741039    0.526634     0.005394
PD2724   PD        0.301607    0.778629    0.564410     0.005394
PD2725   PD        0.336627    0.743184    0.562917     0.005394
PD2726   PD        0.337248    0.776296    0.526709     0.005394
PD2727   PD        0.375813    0.741945    0.527053     0.005394
PD2728   PD        0.374873    0.778701    0.562597     0.005394
NI2729   NI        0.382677    0.734351    0.542777     0.004307
NI2730   NI        0.401390    0.785296    0.520119     0.004307
PD2731   PD        0.448496    0.740017    0.521218     0.005394
NI2732   NI        0.447996    0.775781    0.563361     0.004307
PD2733   PD        0.484080    0.736047    0.564823     0.005394
PD2734   PD        0.482627    0.775451    0.526885     0.005394
PD2735   PD        0.521560    0.735054    0.527385     0.005394
NI2736   NI        0.530001    0.790413    0.552095     0.004307
PD2737   PD        0.557149    0.737777    0.563254     0.005394
NI2738   NI        0.555872    0.770983    0.527500     0.004307
NI2739   NI        0.594461    0.736910    0.526057     0.004307
NI2740   NI        0.592548    0.773330    0.562826     0.004307
NI2741   NI        0.630746    0.743582    0.562854     0.004307
NI2742   NI        0.627156    0.772846    0.524975     0.004307
NI2743   NI        0.667664    0.737978    0.528835     0.004307
NI2744   NI        0.669156    0.778647    0.564050     0.004307
NI2745   NI        0.673930    0.770185    0.566753     0.004307
NI2746   NI        0.702177    0.776812    0.526870     0.004307
NI2747   NI        0.741463    0.740248    0.529678     0.004307
NI2748   NI        0.215459    0.844742    0.519005     0.004307
NI2749   NI        0.263311    0.812713    0.565063     0.004307
NI2750   NI        0.263797    0.846550    0.525573     0.004307
NI2751   NI        0.300619    0.813717    0.527933     0.004307
NI2752   NI        0.294072    0.853600    0.564390     0.004307
NI2753   NI        0.340134    0.813846    0.559918     0.004307
NI2754   NI        0.335788    0.849630    0.524991     0.004307
NI2755   NI        0.372197    0.816898    0.525880     0.004307
NI2756   NI        0.374319    0.850364    0.560971     0.004307
NI2757   NI        0.410575    0.814312    0.562163     0.004307
NI2758   NI        0.409623    0.850670    0.526996     0.004307
NI2759   NI        0.447787    0.816607    0.529192     0.004307
NI2760   NI        0.453040    0.862904    0.549012     0.004307
NI2761   NI        0.456783    0.865171    0.562992     0.004307
NI2762   NI        0.483591    0.848031    0.528453     0.004307
NI2763   NI        0.521903    0.809331    0.527516     0.004307
NI2764   NI        0.520422    0.851335    0.559688     0.004307
NI2765   NI        0.555625    0.811006    0.565869     0.004307
NI2766   NI        0.557966    0.844039    0.531918     0.004307
NI2767   NI        0.561289    0.809141    0.497022     0.004307
NI2768   NI        0.586236    0.865401    0.555452     0.004307
NI2769   NI        0.638467    0.830092    0.534599     0.004307
NI2770   NI        0.629535    0.849877    0.530296     0.004307
NI2771   NI        0.672059    0.836118    0.499262     0.004307
NI2772   NI        0.435765    0.859866    0.547519     0.004307
NI2773   NI        0.335163    0.047400    0.602561     0.004307
NI2774   NI        0.372648    0.050997    0.636130     0.004307
NI2775   NI        0.413337    0.048085    0.598352     0.004307
NI2776   NI        0.421450    0.022590    0.639754     0.004307
NI2777   NI        0.485641    0.082983    0.628265     0.004307
NI2778   NI        0.521328    0.046002    0.631841     0.004307
NI2779   NI        0.505263    0.053191    0.616214     0.004307
NI2780   NI        0.162644    0.111892    0.582991     0.004307
NI2781   NI        0.227047    0.119394    0.636226     0.004307
NI2782   NI        0.263875    0.085078    0.636243     0.004307
NI2783   NI        0.263045    0.120758    0.600176     0.004307
NI2784   NI        0.302404    0.082706    0.600971     0.004307
NI2785   NI        0.302219    0.119911    0.637243     0.004307
NI2786   NI        0.364576    0.072440    0.651883     0.004307
PD2787   PD        0.339207    0.119353    0.599972     0.005394
NI2788   NI        0.376573    0.082598    0.601560     0.004307
NI2789   NI        0.375130    0.118643    0.635614     0.004307
NI2790   NI        0.396161    0.063469    0.644667     0.004307
NI2791   NI        0.385051    0.109638    0.620476     0.004307
NI2792   NI        0.464467    0.075175    0.612993     0.004307
PD2793   PD        0.449367    0.120234    0.636895     0.005394
NI2794   NI        0.486400    0.081505    0.638098     0.004307
PD2795   PD        0.487990    0.122260    0.601812     0.005394
NI2796   NI        0.523878    0.080720    0.601182     0.004307
PD2797   PD        0.523024    0.116686    0.637878     0.005394
NI2798   NI        0.559082    0.082488    0.638783     0.004307
PD2799   PD        0.561862    0.117709    0.602262     0.005394
NI2800   NI        0.597311    0.080030    0.600793     0.004307
NI2801   NI        0.596426    0.116785    0.636848     0.004307
NI2802   NI        0.636653    0.036856    0.640738     0.004307
NI2803   NI        0.635623    0.115322    0.600612     0.004307
NI2804   NI        0.670454    0.115337    0.639096     0.004307
NI2805   NI        0.714222    0.103171    0.566807     0.004307
NI2806   NI        0.127490    0.197892    0.622368     0.004307
NI2807   NI        0.161765    0.118692    0.634686     0.004307
NI2808   NI        0.157641    0.165739    0.651960     0.004307
NI2809   NI        0.195625    0.151297    0.655506     0.004307
NI2810   NI        0.192429    0.192501    0.599041     0.004307
NI2811   NI        0.228313    0.157690    0.599958     0.004307
NI2812   NI        0.228813    0.178374    0.627208     0.004307
NI2813   NI        0.235502    0.123252    0.638310     0.004307
PD2814   PD        0.265982    0.195145    0.598618     0.005394
NI2815   NI        0.295515    0.134141    0.615503     0.004307
PD2816   PD        0.301510    0.194798    0.635614     0.005394
PD2817   PD        0.340573    0.155270    0.637483     0.005394
NI2818   NI        0.325921    0.167012    0.589821     0.004307
PD2819   PD        0.375686    0.156595    0.601133     0.005394
PD2820   PD        0.377234    0.192482    0.637188     0.005394
PD2821   PD        0.411795    0.154347    0.635725     0.005394
PD2822   PD        0.413048    0.191791    0.599734     0.005394
PD2823   PD        0.450016    0.155917    0.599905     0.005394
PD2824   PD        0.450018    0.191121    0.637155     0.005394
PD2825   PD        0.486577    0.154253    0.635844     0.005394
PD2826   PD        0.487478    0.191124    0.601555     0.005394
PD2827   PD        0.525153    0.154549    0.601630     0.005394
PD2828   PD        0.524198    0.192525    0.637103     0.005394
PD2829   PD        0.560686    0.155188    0.637816     0.005394
NI2830   NI        0.572266    0.210521    0.609975     0.004307
PD2831   PD        0.598184    0.153617    0.601455     0.005394
PD2832   PD        0.598880    0.190857    0.637696     0.005394
PD2833   PD        0.634774    0.152795    0.637801     0.005394
PD2834   PD        0.636209    0.187752    0.601049     0.005394
NI2835   NI        0.672368    0.152922    0.599851     0.004307
NI2836   NI        0.667605    0.177678    0.660729     0.004307
NI2837   NI        0.708838    0.151617    0.639482     0.004307
NI2838   NI        0.707665    0.160509    0.632383     0.004307
NI2839   NI        0.746247    0.151396    0.601604     0.004307
NI2840   NI        0.744586    0.188689    0.637305     0.004307
NI2841   NI        0.731955    0.188396    0.591268     0.004307
NI2842   NI        0.083934    0.271390    0.638186     0.004307
NI2843   NI        0.123851    0.230104    0.636453     0.004307
NI2844   NI        0.121012    0.265489    0.601356     0.004307
NI2845   NI        0.157611    0.228285    0.596851     0.004307
NI2846   NI        0.137330    0.272490    0.620850     0.004307
NI2847   NI        0.157286    0.195327    0.639220     0.004307
NI2848   NI        0.173679    0.241860    0.606217     0.004307
PD2849   PD        0.229836    0.230225    0.598144     0.005394
PD2850   PD        0.229085    0.265997    0.636809     0.005394
PD2851   PD        0.264297    0.232881    0.634132     0.005394
PD2852   PD        0.268648    0.267386    0.600946     0.005394
PD2853   PD        0.303232    0.229017    0.600061     0.005394
PD2854   PD        0.302781    0.264192    0.638786     0.005394
PD2855   PD        0.340859    0.229732    0.637376     0.005394
PD2856   PD        0.340524    0.265571    0.600559     0.005394
PD2857   PD        0.376689    0.228301    0.598650     0.005394
PD2858   PD        0.377577    0.264016    0.636053     0.005394
NI2859   NI        0.395290    0.223257    0.654707     0.004307
PD2860   PD        0.413498    0.266157    0.598980     0.005394
PD2861   PD        0.450870    0.228345    0.601044     0.005394
PD2862   PD        0.452069    0.264774    0.637014     0.005394
PD2863   PD        0.486631    0.227239    0.636718     0.005394
PD2864   PD        0.486483    0.265358    0.599963     0.005394
PD2865   PD        0.524066    0.227580    0.601036     0.005394
PD2866   PD        0.523313    0.262172    0.638301     0.005394
PD2867   PD        0.562104    0.227594    0.638201     0.005394
PD2868   PD        0.560778    0.263898    0.599526     0.005394
PD2869   PD        0.629357    0.192534    0.595671     0.005394
PD2870   PD        0.598744    0.263608    0.637237     0.005394
PD2871   PD        0.635853    0.227077    0.637052     0.005394
PD2872   PD        0.636348    0.262210    0.600259     0.005394
NI2873   NI        0.678768    0.253225    0.624678     0.004307
PD2874   PD        0.671619    0.262416    0.638597     0.005394
PD2875   PD        0.709406    0.226376    0.637234     0.005394
PD2876   PD        0.709921    0.263394    0.600452     0.005394
PD2877   PD        0.746132    0.224918    0.601714     0.005394
PD2878   PD        0.744705    0.263870    0.636913     0.005394
NI2879   NI        0.782062    0.228550    0.638864     0.004307
NI2880   NI        0.783000    0.263015    0.600749     0.004307
NI2881   NI        0.767762    0.265725    0.608629     0.004307
NI2882   NI        0.030312    0.328869    0.595634     0.004307
NI2883   NI        0.078508    0.275161    0.590631     0.004307
NI2884   NI        0.080971    0.319770    0.614163     0.004307
NI2885   NI        0.090385    0.281214    0.639465     0.004307
NI2886   NI        0.111797    0.355287    0.604702     0.004307
NI2887   NI        0.124228    0.303391    0.632116     0.004307
PD2888   PD        0.158352    0.339807    0.637066     0.005394
NI2889   NI        0.171627    0.287553    0.629276     0.004307
NI2890   NI        0.170995    0.326720    0.604982     0.004307
NI2891   NI        0.206037    0.273926    0.592374     0.004307
NI2892   NI        0.208437    0.350977    0.634317     0.004307
PD2893   PD        0.267172    0.303630    0.638461     0.005394
PD2894   PD        0.266963    0.339647    0.600453     0.005394
PD2895   PD        0.322490    0.275239    0.603216     0.005394
PD2896   PD        0.301925    0.338736    0.640745     0.005394
PD2897   PD        0.338536    0.302492    0.638401     0.005394
PD2898   PD        0.338701    0.339970    0.601585     0.005394
PD2899   PD        0.377707    0.301565    0.601544     0.005394
PD2900   PD        0.376197    0.339223    0.636547     0.005394
PD2901   PD        0.420040    0.280338    0.654357     0.005394
PD2902   PD        0.413575    0.337651    0.597628     0.005394
PD2903   PD        0.451421    0.302122    0.599797     0.005394
PD2904   PD        0.421845    0.323022    0.626326     0.005394
PD2905   PD        0.486273    0.301192    0.636753     0.005394
PD2906   PD        0.486061    0.337611    0.598684     0.005394
PD2907   PD        0.524643    0.299802    0.599907     0.005394
PD2908   PD        0.523843    0.336676    0.636327     0.005394
PD2909   PD        0.561892    0.299105    0.638615     0.005394
PD2910   PD        0.561104    0.336747    0.600479     0.005394
PD2911   PD        0.599397    0.297942    0.600038     0.005394
PD2912   PD        0.605550    0.314957    0.647202     0.005394
NI2913   NI        0.641800    0.319771    0.656568     0.004307
PD2914   PD        0.634431    0.335909    0.599651     0.005394
PD2915   PD        0.672202    0.299250    0.601461     0.005394
NI2916   NI        0.694658    0.348910    0.647099     0.004307
PD2917   PD        0.710149    0.300515    0.637059     0.005394
PD2918   PD        0.708940    0.336133    0.600045     0.005394
PD2919   PD        0.747924    0.300023    0.600790     0.005394
PD2920   PD        0.745348    0.336262    0.638446     0.005394
PD2921   PD        0.782639    0.300122    0.638292     0.005394
PD2922   PD        0.782694    0.336726    0.602040     0.005394
NI2923   NI        0.831762    0.329346    0.587718     0.004307
NI2924   NI        0.817320    0.340714    0.637955     0.004307
NI2925   NI        0.854588    0.339390    0.600549     0.004307
NI2926   NI        0.038202    0.372017    0.673758     0.004307
NI2927   NI        0.043556    0.413557    0.601343     0.004307
NI2928   NI        0.085167    0.376282    0.595660     0.004307
NI2929   NI        0.053830    0.406624    0.602299     0.004307
NI2930   NI        0.086520    0.411121    0.634331     0.004307
NI2931   NI        0.102223    0.404764    0.606945     0.004307
NI2932   NI        0.150536    0.363425    0.628508     0.004307
PD2933   PD        0.156126    0.411263    0.639039     0.005394
NI2934   NI        0.195077    0.396264    0.650941     0.004307
PD2935   PD        0.192826    0.412278    0.601277     0.005394
PD2936   PD        0.229175    0.377212    0.601796     0.005394
PD2937   PD        0.229173    0.413445    0.638051     0.005394
PD2938   PD        0.268246    0.376064    0.640235     0.005394
PD2939   PD        0.264674    0.412177    0.600743     0.005394
PD2940   PD        0.273860    0.365757    0.623869     0.005394
PD2941   PD        0.302072    0.411156    0.638886     0.005394
PD2942   PD        0.322677    0.369024    0.636885     0.005394
PD2943   PD        0.337038    0.409614    0.600100     0.005394
PD2944   PD        0.376192    0.375647    0.601726     0.005394
PD2945   PD        0.376641    0.411178    0.636075     0.005394
PD2946   PD        0.411867    0.374526    0.638179     0.005394
PD2947   PD        0.412833    0.412082    0.598673     0.005394
PD2948   PD        0.449045    0.372397    0.597379     0.005394
PD2949   PD        0.447739    0.409955    0.637255     0.005394
PD2950   PD        0.518583    0.374725    0.669491     0.005394
PD2951   PD        0.486399    0.412455    0.599426     0.005394
PD2952   PD        0.523080    0.374300    0.600536     0.005394
PD2953   PD        0.522484    0.409678    0.636991     0.005394
PD2954   PD        0.558468    0.373943    0.637709     0.005394
PD2955   PD        0.557314    0.409619    0.599402     0.005394
PD2956   PD        0.597033    0.373714    0.601091     0.005394
PD2957   PD        0.596607    0.409101    0.635513     0.005394
PD2958   PD        0.634566    0.368446    0.634575     0.005394
PD2959   PD        0.601970    0.422725    0.614217     0.005394
NI2960   NI        0.695404    0.385263    0.612269     0.004307
NI2961   NI        0.669537    0.438333    0.664953     0.004307
NI2962   NI        0.697057    0.362810    0.659453     0.004307
PD2963   PD        0.707773    0.405186    0.595980     0.005394
PD2964   PD        0.745982    0.374094    0.601044     0.005394
PD2965   PD        0.744399    0.411720    0.637144     0.005394
PD2966   PD        0.782075    0.375705    0.638088     0.005394
PD2967   PD        0.781075    0.411744    0.600871     0.005394
PD2968   PD        0.818409    0.375595    0.602041     0.005394
NI2969   NI        0.817427    0.411696    0.638243     0.004307
NI2970   NI        0.892414    0.376370    0.674607     0.004307
NI2971   NI        0.855031    0.412617    0.601584     0.004307
NI2972   NI        0.043096    0.450441    0.634878     0.004307
NI2973   NI        0.043447    0.486177    0.599453     0.004307
PD2974   PD        0.079829    0.450063    0.600683     0.005394
NI2975   NI        0.059554    0.475807    0.639579     0.004307
PD2976   PD        0.118606    0.448836    0.637757     0.005394
PD2977   PD        0.118336    0.484193    0.599862     0.005394
PD2978   PD        0.155996    0.450720    0.601079     0.005394
PD2979   PD        0.155692    0.484933    0.638729     0.005394
PD2980   PD        0.192669    0.447100    0.638119     0.005394
PD2981   PD        0.191845    0.484355    0.601573     0.005394
PD2982   PD        0.229115    0.449401    0.602474     0.005394
PD2983   PD        0.225524    0.483741    0.639050     0.005394
PD2984   PD        0.264181    0.447732    0.639469     0.005394
PD2985   PD        0.265679    0.483968    0.600582     0.005394
PD2986   PD        0.301568    0.446817    0.600735     0.005394
PD2987   PD        0.301961    0.484532    0.636824     0.005394
PD2988   PD        0.339533    0.446608    0.639216     0.005394
PD2989   PD        0.340077    0.483325    0.601243     0.005394
PD2990   PD        0.376671    0.446944    0.598136     0.005394
PD2991   PD        0.377731    0.485104    0.636810     0.005394
PD2992   PD        0.414064    0.447407    0.636602     0.005394
PD2993   PD        0.412069    0.485747    0.600303     0.005394
PD2994   PD        0.450989    0.445616    0.599078     0.005394
PD2995   PD        0.448474    0.483980    0.637593     0.005394
PD2996   PD        0.485053    0.446905    0.637783     0.005394
PD2997   PD        0.484984    0.482075    0.600952     0.005394
PD2998   PD        0.522617    0.445735    0.600331     0.005394
PD2999   PD        0.520331    0.482836    0.639603     0.005394
PD3000   PD        0.558608    0.445405    0.635171     0.005394
PD3001   PD        0.562179    0.447938    0.626293     0.005394
PD3002   PD        0.594646    0.446978    0.601652     0.005394
PD3003   PD        0.604216    0.461570    0.648954     0.005394
PD3004   PD        0.633069    0.448790    0.635799     0.005394
PD3005   PD        0.635311    0.483542    0.598787     0.005394
PD3006   PD        0.670691    0.445930    0.600427     0.005394
PD3007   PD        0.668402    0.485309    0.632443     0.005394
PD3008   PD        0.707557    0.446703    0.637125     0.005394
PD3009   PD        0.705745    0.484638    0.600179     0.005394
NI3010   NI        0.743818    0.449060    0.603944     0.004307
NI3011   NI        0.742400    0.476902    0.656783     0.004307
NI3012   NI        0.779769    0.447861    0.637993     0.004307
NI3013   NI        0.753359    0.511606    0.593065     0.004307
NI3014   NI        0.818939    0.448453    0.601995     0.004307
NI3015   NI        0.774343    0.486223    0.599192     0.004307
NI3016   NI        0.836556    0.440447    0.663033     0.004307
NI3017   NI        0.855860    0.485212    0.602151     0.004307
NI3018   NI        0.045214    0.522806    0.636218     0.004307
NI3019   NI        0.045334    0.560533    0.602103     0.004307
NI3020   NI        0.082249    0.521528    0.601596     0.004307
NI3021   NI        0.054568    0.528145    0.643021     0.004307
NI3022   NI        0.118819    0.520383    0.635163     0.004307
NI3023   NI        0.117850    0.555185    0.598217     0.004307
PD3024   PD        0.154190    0.520323    0.600562     0.005394
PD3025   PD        0.153571    0.557005    0.636040     0.005394
NI3026   NI        0.196635    0.531043    0.620337     0.004307
PD3027   PD        0.193316    0.557032    0.602435     0.005394
PD3028   PD        0.231549    0.521826    0.599412     0.005394
PD3029   PD        0.229599    0.559278    0.637508     0.005394
NI3030   NI        0.260032    0.535723    0.662527     0.004307
PD3031   PD        0.264631    0.557874    0.598758     0.005394
PD3032   PD        0.301712    0.519548    0.599394     0.005394
PD3033   PD        0.304462    0.520973    0.676908     0.005394
PD3034   PD        0.339026    0.519177    0.636581     0.005394
PD3035   PD        0.338829    0.557155    0.599005     0.005394
PD3036   PD        0.376762    0.522774    0.600252     0.005394
PD3037   PD        0.374959    0.554185    0.635745     0.005394
PD3038   PD        0.412090    0.521765    0.638333     0.005394
PD3039   PD        0.414769    0.557299    0.600628     0.005394
PD3040   PD        0.448500    0.519193    0.599633     0.005394
PD3041   PD        0.449124    0.554626    0.635058     0.005394
PD3042   PD        0.484307    0.519586    0.636186     0.005394
PD3043   PD        0.514164    0.562000    0.634242     0.005394
PD3044   PD        0.521512    0.521140    0.599416     0.005394
PD3045   PD        0.520757    0.555107    0.636456     0.005394
PD3046   PD        0.557672    0.521488    0.635775     0.005394
PD3047   PD        0.557838    0.556683    0.601082     0.005394
PD3048   PD        0.594986    0.519521    0.600074     0.005394
NI3049   NI        0.590038    0.528333    0.651151     0.004307
PD3050   PD        0.631368    0.501457    0.643802     0.005394
PD3051   PD        0.630616    0.556539    0.599712     0.005394
PD3052   PD        0.667668    0.521349    0.598855     0.005394
PD3053   PD        0.665787    0.558565    0.634535     0.005394
PD3054   PD        0.704684    0.522256    0.637923     0.005394
NI3055   NI        0.716067    0.564810    0.620235     0.004307
NI3056   NI        0.723673    0.515081    0.620910     0.004307
NI3057   NI        0.740815    0.560986    0.634924     0.004307
NI3058   NI        0.764783    0.495533    0.668404     0.004307
NI3059   NI        0.777882    0.556768    0.600471     0.004307
NI3060   NI        0.820542    0.539990    0.611717     0.004307
NI3061   NI        0.802927    0.542046    0.643328     0.004307
NI3062   NI        0.849790    0.549142    0.654766     0.004307
NI3063   NI        0.851228    0.560019    0.596986     0.004307
NI3064   NI        0.081025    0.595447    0.602560     0.004307
NI3065   NI        0.085056    0.664720    0.604695     0.004307
NI3066   NI        0.117834    0.592917    0.634690     0.004307
NI3067   NI        0.118756    0.631314    0.599951     0.004307
NI3068   NI        0.155893    0.564677    0.628046     0.004307
NI3069   NI        0.153372    0.638202    0.638375     0.004307
PD3070   PD        0.193558    0.595085    0.638655     0.005394
NI3071   NI        0.155602    0.628164    0.635815     0.004307
PD3072   PD        0.229785    0.593680    0.599374     0.005394
NI3073   NI        0.221478    0.601500    0.599280     0.004307
NI3074   NI        0.248010    0.602057    0.645101     0.004307
NI3075   NI        0.258238    0.644940    0.617459     0.004307
PD3076   PD        0.301484    0.593770    0.598919     0.005394
PD3077   PD        0.302825    0.631528    0.638301     0.005394
PD3078   PD        0.331002    0.595993    0.636195     0.005394
PD3079   PD        0.338701    0.628985    0.596031     0.005394
PD3080   PD        0.376097    0.593127    0.601547     0.005394
PD3081   PD        0.344645    0.662890    0.632058     0.005394
PD3082   PD        0.410962    0.593333    0.636952     0.005394
PD3083   PD        0.410291    0.627745    0.600545     0.005394
PD3084   PD        0.449342    0.593136    0.601809     0.005394
NI3085   NI        0.434223    0.639660    0.654896     0.004307
PD3086   PD        0.480948    0.600825    0.620502     0.005394
PD3087   PD        0.481500    0.630093    0.598958     0.005394
PD3088   PD        0.525574    0.592936    0.601119     0.005394
PD3089   PD        0.520720    0.629703    0.634399     0.005394
PD3090   PD        0.561479    0.596911    0.632132     0.005394
PD3091   PD        0.557630    0.632345    0.598639     0.005394
PD3092   PD        0.592046    0.597018    0.594446     0.005394
PD3093   PD        0.594045    0.631496    0.636610     0.005394
PD3094   PD        0.629469    0.592968    0.638583     0.005394
PD3095   PD        0.629747    0.630525    0.599022     0.005394
NI3096   NI        0.675190    0.598956    0.606439     0.004307
NI3097   NI        0.667067    0.630026    0.634803     0.004307
NI3098   NI        0.722780    0.610231    0.642004     0.004307
NI3099   NI        0.712006    0.654086    0.597692     0.004307
NI3100   NI        0.754920    0.600529    0.601868     0.004307
NI3101   NI        0.741381    0.633095    0.635862     0.004307
NI3102   NI        0.792269    0.623743    0.624074     0.004307
NI3103   NI        0.791766    0.635233    0.624354     0.004307
NI3104   NI        0.814706    0.589348    0.600804     0.004307
NI3105   NI        0.805063    0.631323    0.625624     0.004307
NI3106   NI        0.150369    0.665979    0.663359     0.004307
NI3107   NI        0.115400    0.703517    0.598223     0.004307
NI3108   NI        0.152854    0.667527    0.599141     0.004307
NI3109   NI        0.151984    0.704032    0.635115     0.004307
NI3110   NI        0.191436    0.666547    0.634908     0.004307
NI3111   NI        0.197489    0.701175    0.610416     0.004307
NI3112   NI        0.245616    0.689705    0.606723     0.004307
NI3113   NI        0.232718    0.700668    0.636471     0.004307
NI3114   NI        0.298484    0.695351    0.628933     0.004307
NI3115   NI        0.260111    0.730740    0.623107     0.004307
NI3116   NI        0.296420    0.674458    0.602823     0.004307
PD3117   PD        0.304054    0.703405    0.632640     0.005394
PD3118   PD        0.337206    0.667487    0.636011     0.005394
PD3119   PD        0.339371    0.704223    0.598820     0.005394
PD3120   PD        0.373486    0.664717    0.599832     0.005394
PD3121   PD        0.375148    0.703733    0.636037     0.005394
NI3122   NI        0.410075    0.672527    0.643538     0.004307
PD3123   PD        0.407800    0.699225    0.600492     0.005394
PD3124   PD        0.446340    0.664895    0.598211     0.005394
NI3125   NI        0.453516    0.689028    0.626208     0.004307
PD3126   PD        0.446579    0.702766    0.636246     0.005394
PD3127   PD        0.482645    0.703228    0.601454     0.005394
PD3128   PD        0.525376    0.665109    0.584154     0.005394
NI3129   NI        0.531881    0.712206    0.655351     0.004307
PD3130   PD        0.553376    0.667260    0.637412     0.005394
NI3131   NI        0.554059    0.723764    0.609666     0.004307
PD3132   PD        0.598230    0.669424    0.602747     0.005394
NI3133   NI        0.584033    0.713254    0.614088     0.004307
PD3134   PD        0.631584    0.666719    0.634800     0.005394
NI3135   NI        0.632224    0.702980    0.599212     0.004307
PD3136   PD        0.666663    0.666810    0.600709     0.005394
NI3137   NI        0.696999    0.707962    0.655827     0.004307
NI3138   NI        0.705837    0.657798    0.645792     0.004307
NI3139   NI        0.704290    0.705513    0.601973     0.004307
NI3140   NI        0.738751    0.666283    0.604099     0.004307
NI3141   NI        0.740174    0.701726    0.637130     0.004307
NI3142   NI        0.775564    0.667964    0.636985     0.004307
NI3143   NI        0.781184    0.678062    0.638934     0.004307
NI3144   NI        0.152896    0.742128    0.601312     0.004307
NI3145   NI        0.179299    0.742046    0.636336     0.004307
NI3146   NI        0.190793    0.779227    0.599988     0.004307
NI3147   NI        0.229676    0.772639    0.564954     0.004307
NI3148   NI        0.228883    0.777174    0.634193     0.004307
NI3149   NI        0.266716    0.736204    0.635725     0.004307
NI3150   NI        0.265215    0.775508    0.601819     0.004307
PD3151   PD        0.300819    0.739644    0.598976     0.005394
NI3152   NI        0.302828    0.778671    0.635936     0.004307
PD3153   PD        0.338682    0.742217    0.635884     0.005394
NI3154   NI        0.320577    0.782577    0.589965     0.004307
NI3155   NI        0.397099    0.742235    0.586125     0.004307
NI3156   NI        0.377925    0.773894    0.637435     0.004307
NI3157   NI        0.414128    0.732251    0.632560     0.004307
NI3158   NI        0.416370    0.809195    0.568094     0.004307
PD3159   PD        0.448183    0.740506    0.599437     0.005394
NI3160   NI        0.448796    0.774679    0.637859     0.004307
NI3161   NI        0.489361    0.711268    0.653438     0.004307
NI3162   NI        0.504759    0.789909    0.595506     0.004307
NI3163   NI        0.520251    0.740298    0.599943     0.004307
NI3164   NI        0.520040    0.773304    0.638504     0.004307
NI3165   NI        0.555353    0.740987    0.635542     0.004307
NI3166   NI        0.556471    0.776502    0.599868     0.004307
NI3167   NI        0.595149    0.739444    0.601338     0.004307
NI3168   NI        0.590417    0.777909    0.637189     0.004307
NI3169   NI        0.630083    0.739358    0.637682     0.004307
NI3170   NI        0.663352    0.811599    0.600199     0.004307
NI3171   NI        0.666976    0.741538    0.597810     0.004307
NI3172   NI        0.627797    0.774121    0.674722     0.004307
NI3173   NI        0.706393    0.741332    0.635348     0.004307
NI3174   NI        0.703171    0.774575    0.599920     0.004307
NI3175   NI        0.740707    0.740369    0.602104     0.004307
NI3176   NI        0.249540    0.818444    0.654250     0.004307
NI3177   NI        0.297582    0.811016    0.600612     0.004307
NI3178   NI        0.322594    0.786274    0.639619     0.004307
NI3179   NI        0.327233    0.846125    0.600232     0.004307
NI3180   NI        0.374429    0.883166    0.599992     0.004307
NI3181   NI        0.397655    0.861659    0.640896     0.004307
NI3182   NI        0.418433    0.813265    0.627461     0.004307
NI3183   NI        0.418214    0.849293    0.594882     0.004307
NI3184   NI        0.439729    0.826027    0.581228     0.004307
NI3185   NI        0.447356    0.852932    0.638330     0.004307
NI3186   NI        0.484573    0.810249    0.636718     0.004307
NI3187   NI        0.481365    0.844001    0.601983     0.004307
NI3188   NI        0.528151    0.830743    0.604353     0.004307
NI3189   NI        0.529691    0.857333    0.618368     0.004307
NI3190   NI        0.546025    0.849299    0.649210     0.004307
NI3191   NI        0.587999    0.856881    0.606468     0.004307
NI3192   NI        0.596810    0.811558    0.596160     0.004307
NI3193   NI        0.628190    0.815449    0.650298     0.004307
NI3194   NI        0.263717    0.121118    0.673323     0.004307
NI3195   NI        0.296278    0.106619    0.686622     0.004307
NI3196   NI        0.339733    0.088131    0.707423     0.004307
NI3197   NI        0.374017    0.085577    0.672526     0.004307
NI3198   NI        0.373812    0.121695    0.709593     0.004307
NI3199   NI        0.408061    0.082527    0.701493     0.004307
NI3200   NI        0.413567    0.083260    0.711041     0.004307
NI3201   NI        0.448045    0.081766    0.672947     0.004307
NI3202   NI        0.448255    0.117301    0.709020     0.004307
NI3203   NI        0.485450    0.083291    0.709180     0.004307
PD3204   PD        0.486874    0.115936    0.674038     0.005394
NI3205   NI        0.521988    0.080862    0.673466     0.004307
NI3206   NI        0.523525    0.116370    0.711892     0.004307
NI3207   NI        0.529500    0.088375    0.678971     0.004307
NI3208   NI        0.595315    0.081622    0.738821     0.004307
NI3209   NI        0.662597    0.107314    0.689312     0.004307
NI3210   NI        0.191361    0.193350    0.673277     0.004307
NI3211   NI        0.227297    0.157565    0.672952     0.004307
NI3212   NI        0.228186    0.193091    0.710160     0.004307
NI3213   NI        0.255814    0.131359    0.710138     0.004307
NI3214   NI        0.269797    0.190929    0.683825     0.004307
NI3215   NI        0.301124    0.158761    0.673398     0.004307
NI3216   NI        0.301694    0.190445    0.712125     0.004307
NI3217   NI        0.339553    0.156936    0.712405     0.004307
PD3218   PD        0.339294    0.196388    0.668913     0.005394
PD3219   PD        0.377447    0.157604    0.673226     0.005394
NI3220   NI        0.384576    0.170196    0.705035     0.004307
NI3221   NI        0.451315    0.127353    0.713602     0.004307
PD3222   PD        0.413015    0.192138    0.672108     0.005394
PD3223   PD        0.451004    0.155376    0.672305     0.005394
NI3224   NI        0.467015    0.185275    0.735561     0.004307
NI3225   NI        0.486511    0.152809    0.710076     0.004307
PD3226   PD        0.485315    0.190997    0.674898     0.005394
NI3227   NI        0.510560    0.132879    0.670488     0.004307
PD3228   PD        0.522614    0.192414    0.710814     0.005394
NI3229   NI        0.559777    0.155057    0.711358     0.004307
PD3230   PD        0.562843    0.189622    0.674751     0.005394
NI3231   NI        0.634678    0.154771    0.711573     0.004307
PD3232   PD        0.597780    0.191769    0.711940     0.005394
NI3233   NI        0.638389    0.165863    0.716432     0.004307
PD3234   PD        0.634532    0.190035    0.675091     0.005394
NI3235   NI        0.670765    0.157402    0.673563     0.004307
NI3236   NI        0.671051    0.189547    0.711182     0.004307
NI3237   NI        0.708220    0.190769    0.675283     0.004307
NI3238   NI        0.117442    0.266491    0.672891     0.004307
NI3239   NI        0.154427    0.231728    0.674152     0.004307
NI3240   NI        0.127797    0.229861    0.710842     0.004307
NI3241   NI        0.190929    0.231151    0.708157     0.004307
PD3242   PD        0.191776    0.267287    0.673107     0.005394
NI3243   NI        0.227785    0.231469    0.674183     0.004307
PD3244   PD        0.228362    0.266074    0.710666     0.005394
NI3245   NI        0.262948    0.229177    0.711997     0.004307
PD3246   PD        0.264822    0.263774    0.673956     0.005394
PD3247   PD        0.299808    0.229628    0.673603     0.005394
PD3248   PD        0.301573    0.266116    0.710626     0.005394
PD3249   PD        0.338130    0.229174    0.709943     0.005394
PD3250   PD        0.338051    0.264482    0.674971     0.005394
PD3251   PD        0.376487    0.229703    0.673807     0.005394
PD3252   PD        0.374721    0.264836    0.711141     0.005394
NI3253   NI        0.412061    0.224883    0.704941     0.004307
PD3254   PD        0.413888    0.266189    0.673256     0.005394
PD3255   PD        0.450219    0.227807    0.674176     0.005394
PD3256   PD        0.450619    0.265213    0.710846     0.005394
PD3257   PD        0.485255    0.228702    0.711322     0.005394
PD3258   PD        0.489160    0.264963    0.674406     0.005394
PD3259   PD        0.523474    0.225143    0.674586     0.005394
PD3260   PD        0.524976    0.264401    0.712370     0.005394
PD3261   PD        0.560373    0.226678    0.712827     0.005394
PD3262   PD        0.560736    0.263639    0.675358     0.005394
PD3263   PD        0.600002    0.229952    0.674305     0.005394
NI3264   NI        0.628033    0.263626    0.741813     0.004307
PD3265   PD        0.635602    0.226386    0.711938     0.005394
PD3266   PD        0.635878    0.262836    0.674034     0.005394
NI3267   NI        0.672297    0.226797    0.673421     0.004307
PD3268   PD        0.671216    0.263171    0.711414     0.005394
NI3269   NI        0.708784    0.226713    0.710487     0.004307
PD3270   PD        0.709517    0.263834    0.673501     0.005394
NI3271   NI        0.745750    0.226048    0.675510     0.004307
NI3272   NI        0.732918    0.284163    0.722833     0.004307
NI3273   NI        0.782482    0.264494    0.674698     0.004307
NI3274   NI        0.116850    0.339076    0.747941     0.004307
NI3275   NI        0.120942    0.341346    0.672959     0.004307
NI3276   NI        0.117658    0.305553    0.712080     0.004307
NI3277   NI        0.146057    0.341365    0.753868     0.004307
NI3278   NI        0.191379    0.301932    0.712498     0.004307
NI3279   NI        0.193813    0.314813    0.685108     0.004307
PD3280   PD        0.228895    0.302950    0.673147     0.005394
PD3281   PD        0.226267    0.339084    0.714752     0.005394
NI3282   NI        0.266880    0.270311    0.747970     0.004307
PD3283   PD        0.264804    0.338837    0.676335     0.005394
NI3284   NI        0.293599    0.299731    0.673035     0.004307
PD3285   PD        0.299715    0.333590    0.712782     0.005394
PD3286   PD        0.340135    0.298432    0.714705     0.005394
PD3287   PD        0.339694    0.338856    0.675280     0.005394
PD3288   PD        0.377322    0.300857    0.674120     0.005394
PD3289   PD        0.374836    0.337090    0.712700     0.005394
NI3290   NI        0.400241    0.291457    0.735851     0.004307
PD3291   PD        0.411848    0.337070    0.674971     0.005394
PD3292   PD        0.450434    0.301831    0.675697     0.005394
PD3293   PD        0.449589    0.337825    0.711316     0.005394
PD3294   PD        0.485364    0.301470    0.712759     0.005394
PD3295   PD        0.486569    0.336917    0.674350     0.005394
PD3296   PD        0.521799    0.300498    0.672730     0.005394
PD3297   PD        0.521974    0.336079    0.714039     0.005394
PD3298   PD        0.559569    0.300573    0.711037     0.005394
PD3299   PD        0.528233    0.349736    0.672235     0.005394
PD3300   PD        0.597992    0.301558    0.674218     0.005394
PD3301   PD        0.557408    0.374365    0.711749     0.005394
PD3302   PD        0.634624    0.301278    0.711040     0.005394
PD3303   PD        0.634528    0.338471    0.673659     0.005394
PD3304   PD        0.670109    0.301274    0.672817     0.005394
NI3305   NI        0.707681    0.338588    0.746607     0.004307
NI3306   NI        0.689461    0.294004    0.741874     0.004307
PD3307   PD        0.709037    0.338818    0.674381     0.005394
PD3308   PD        0.746180    0.300192    0.674352     0.005394
NI3309   NI        0.742843    0.336272    0.710043     0.004307
NI3310   NI        0.781070    0.299780    0.711819     0.004307
PD3311   PD        0.781062    0.338463    0.672274     0.005394
NI3312   NI        0.080690    0.377615    0.675275     0.004307
NI3313   NI        0.047691    0.368739    0.710727     0.004307
NI3314   NI        0.119687    0.377823    0.711612     0.004307
NI3315   NI        0.118439    0.413230    0.675537     0.004307
PD3316   PD        0.157788    0.375415    0.675016     0.005394
NI3317   NI        0.145073    0.379848    0.725549     0.004307
PD3318   PD        0.191572    0.375721    0.712919     0.005394
PD3319   PD        0.192432    0.411687    0.677826     0.005394
PD3320   PD        0.229539    0.375972    0.676611     0.005394
PD3321   PD        0.229404    0.413267    0.712394     0.005394
PD3322   PD        0.266394    0.374501    0.714418     0.005394
PD3323   PD        0.266477    0.410443    0.675944     0.005394
PD3324   PD        0.283331    0.386240    0.668910     0.005394
PD3325   PD        0.301037    0.410575    0.711943     0.005394
PD3326   PD        0.341243    0.374968    0.714264     0.005394
PD3327   PD        0.340169    0.411648    0.678015     0.005394
PD3328   PD        0.376659    0.375778    0.675466     0.005394
NI3329   NI        0.360571    0.438674    0.718666     0.004307
PD3330   PD        0.410901    0.373408    0.712431     0.005394
PD3331   PD        0.432328    0.444532    0.680969     0.005394
PD3332   PD        0.450611    0.372834    0.674797     0.005394
PD3333   PD        0.448980    0.411749    0.712516     0.005394
PD3334   PD        0.486877    0.375419    0.710884     0.005394
PD3335   PD        0.487059    0.409990    0.673568     0.005394
PD3336   PD        0.544646    0.363100    0.684694     0.005394
PD3337   PD        0.522798    0.408152    0.712864     0.005394
PD3338   PD        0.576591    0.397987    0.704255     0.005394
PD3339   PD        0.558343    0.410927    0.674352     0.005394
PD3340   PD        0.596883    0.373545    0.673188     0.005394
NI3341   NI        0.600713    0.419527    0.720482     0.004307
NI3342   NI        0.623341    0.387196    0.726949     0.004307
NI3343   NI        0.630852    0.407634    0.678165     0.004307
PD3344   PD        0.670728    0.374594    0.675257     0.005394
PD3345   PD        0.671520    0.411296    0.709761     0.005394
PD3346   PD        0.708274    0.373651    0.710679     0.005394
PD3347   PD        0.706229    0.410985    0.672947     0.005394
PD3348   PD        0.743742    0.374506    0.675850     0.005394
NI3349   NI        0.744093    0.411245    0.712733     0.004307
NI3350   NI        0.781541    0.374778    0.710750     0.004307
NI3351   NI        0.781366    0.409427    0.675445     0.004307
NI3352   NI        0.818151    0.373919    0.675322     0.004307
NI3353   NI        0.824809    0.446953    0.711882     0.004307
NI3354   NI        0.076024    0.486220    0.681583     0.004307
NI3355   NI        0.080057    0.485436    0.711895     0.004307
NI3356   NI        0.116557    0.449079    0.709998     0.004307
NI3357   NI        0.116372    0.486592    0.674304     0.004307
PD3358   PD        0.154687    0.451276    0.673882     0.005394
NI3359   NI        0.156002    0.485743    0.709364     0.004307
NI3360   NI        0.149285    0.446119    0.723076     0.004307
PD3361   PD        0.193430    0.483399    0.674448     0.005394
PD3362   PD        0.229593    0.447937    0.676950     0.005394
PD3363   PD        0.229354    0.484444    0.711954     0.005394
NI3364   NI        0.277420    0.464758    0.717232     0.004307
PD3365   PD        0.266453    0.484676    0.675213     0.005394
PD3366   PD        0.300357    0.447912    0.675025     0.005394
PD3367   PD        0.303884    0.486967    0.712665     0.005394
PD3368   PD        0.337731    0.449296    0.710845     0.005394
PD3369   PD        0.369196    0.511137    0.673927     0.005394
PD3370   PD        0.376929    0.447548    0.675172     0.005394
PD3371   PD        0.375141    0.479984    0.711724     0.005394
PD3372   PD        0.411907    0.448034    0.712363     0.005394
PD3373   PD        0.414233    0.486179    0.674928     0.005394
PD3374   PD        0.448946    0.447288    0.671930     0.005394
PD3375   PD        0.448356    0.483450    0.713367     0.005394
PD3376   PD        0.486359    0.446232    0.711832     0.005394
PD3377   PD        0.484284    0.484110    0.676018     0.005394
PD3378   PD        0.520655    0.448301    0.676591     0.005394
PD3379   PD        0.521982    0.484646    0.711467     0.005394
PD3380   PD        0.558249    0.446912    0.711431     0.005394
PD3381   PD        0.557820    0.481634    0.675206     0.005394
NI3382   NI        0.591689    0.442834    0.694492     0.004307
PD3383   PD        0.588801    0.480517    0.714277     0.005394
NI3384   NI        0.622440    0.469936    0.720359     0.004307
PD3385   PD        0.629545    0.478219    0.679413     0.005394
PD3386   PD        0.670213    0.450517    0.672749     0.005394
PD3387   PD        0.669719    0.486916    0.706737     0.005394
PD3388   PD        0.706511    0.445944    0.710170     0.005394
NI3389   NI        0.715060    0.498720    0.681229     0.004307
NI3390   NI        0.742464    0.450035    0.674153     0.004307
NI3391   NI        0.739689    0.484624    0.710372     0.004307
NI3392   NI        0.787377    0.414249    0.716507     0.004307
NI3393   NI        0.753893    0.520429    0.654205     0.004307
NI3394   NI        0.845845    0.481549    0.685975     0.004307
NI3395   NI        0.812624    0.489387    0.708588     0.004307
NI3396   NI        0.079534    0.520280    0.675188     0.004307
NI3397   NI        0.119109    0.521219    0.710005     0.004307
NI3398   NI        0.107773    0.543150    0.647986     0.004307
NI3399   NI        0.153851    0.522406    0.674241     0.004307
NI3400   NI        0.154232    0.558855    0.712783     0.004307
PD3401   PD        0.191230    0.522829    0.709737     0.005394
PD3402   PD        0.189953    0.556292    0.673759     0.005394
PD3403   PD        0.228713    0.523385    0.675077     0.005394
PD3404   PD        0.227040    0.558738    0.712273     0.005394
PD3405   PD        0.264763    0.520194    0.710794     0.005394
PD3406   PD        0.264993    0.558520    0.673853     0.005394
NI3407   NI        0.301382    0.549807    0.708285     0.004307
PD3408   PD        0.300493    0.559894    0.713783     0.005394
PD3409   PD        0.341033    0.524307    0.710386     0.005394
PD3410   PD        0.366891    0.556523    0.680391     0.005394
PD3411   PD        0.375923    0.519468    0.677092     0.005394
NI3412   NI        0.390000    0.560433    0.720882     0.004307
PD3413   PD        0.413546    0.519858    0.712816     0.005394
PD3414   PD        0.434808    0.564701    0.662192     0.005394
PD3415   PD        0.446883    0.520425    0.674745     0.005394
PD3416   PD        0.450908    0.559213    0.712052     0.005394
PD3417   PD        0.483613    0.520264    0.711213     0.005394
PD3418   PD        0.484519    0.555117    0.676354     0.005394
PD3419   PD        0.520502    0.519192    0.675390     0.005394
PD3420   PD        0.523609    0.557907    0.713802     0.005394
PD3421   PD        0.557166    0.519537    0.711549     0.005394
PD3422   PD        0.558176    0.557941    0.675530     0.005394
PD3423   PD        0.592469    0.520590    0.672166     0.005394
NI3424   NI        0.589815    0.558788    0.709715     0.004307
PD3425   PD        0.633662    0.517983    0.713244     0.005394
NI3426   NI        0.645155    0.565281    0.678573     0.004307
PD3427   PD        0.667944    0.523349    0.672391     0.005394
PD3428   PD        0.667542    0.556309    0.710667     0.005394
NI3429   NI        0.701901    0.515092    0.727342     0.004307
PD3430   PD        0.703674    0.559778    0.671548     0.005394
NI3431   NI        0.752942    0.489149    0.678176     0.004307
NI3432   NI        0.774511    0.593228    0.704971     0.004307
NI3433   NI        0.775356    0.524591    0.705988     0.004307
NI3434   NI        0.779795    0.558605    0.671963     0.004307
NI3435   NI        0.817480    0.521852    0.674853     0.004307
NI3436   NI        0.116811    0.597257    0.712434     0.004307
NI3437   NI        0.105850    0.630367    0.632588     0.004307
NI3438   NI        0.154165    0.593841    0.671187     0.004307
NI3439   NI        0.155225    0.628701    0.705994     0.004307
NI3440   NI        0.191971    0.595133    0.711436     0.004307
NI3441   NI        0.190151    0.630160    0.672570     0.004307
PD3442   PD        0.226869    0.594166    0.675500     0.005394
NI3443   NI        0.227287    0.631126    0.709347     0.004307
PD3444   PD        0.265277    0.596117    0.711977     0.005394
PD3445   PD        0.265251    0.628074    0.673206     0.005394
PD3446   PD        0.301866    0.592688    0.674662     0.005394
PD3447   PD        0.301737    0.630482    0.712037     0.005394
NI3448   NI        0.305267    0.594192    0.743294     0.004307
PD3449   PD        0.339803    0.632257    0.674494     0.005394
NI3450   NI        0.371347    0.599502    0.702018     0.004307
PD3451   PD        0.371716    0.630141    0.711198     0.005394
PD3452   PD        0.409340    0.592378    0.712234     0.005394
PD3453   PD        0.413333    0.631036    0.675036     0.005394
PD3454   PD        0.438408    0.605193    0.697186     0.005394
NI3455   NI        0.435091    0.648342    0.716395     0.004307
PD3456   PD        0.486114    0.592481    0.711501     0.005394
PD3457   PD        0.485115    0.630194    0.674777     0.005394
PD3458   PD        0.520692    0.595401    0.675467     0.005394
PD3459   PD        0.518616    0.629699    0.713353     0.005394
PD3460   PD        0.557997    0.595353    0.711646     0.005394
PD3461   PD        0.555235    0.630992    0.673231     0.005394
PD3462   PD        0.592514    0.596663    0.671772     0.005394
NI3463   NI        0.591665    0.632086    0.712122     0.004307
NI3464   NI        0.645121    0.568954    0.721255     0.004307
NI3465   NI        0.647187    0.638635    0.669918     0.004307
PD3466   PD        0.667581    0.592936    0.672023     0.005394
NI3467   NI        0.671677    0.607806    0.702991     0.004307
NI3468   NI        0.702901    0.596211    0.709443     0.004307
NI3469   NI        0.699581    0.630101    0.672571     0.004307
NI3470   NI        0.738517    0.594584    0.671062     0.004307
NI3471   NI        0.765235    0.612107    0.723283     0.004307
NI3472   NI        0.776619    0.605497    0.710174     0.004307
NI3473   NI        0.814779    0.658272    0.667039     0.004307
NI3474   NI        0.158613    0.666374    0.672757     0.004307
NI3475   NI        0.197090    0.669400    0.706862     0.004307
NI3476   NI        0.209995    0.715000    0.693051     0.004307
NI3477   NI        0.228571    0.665961    0.672090     0.004307
NI3478   NI        0.220677    0.678113    0.721446     0.004307
NI3479   NI        0.259037    0.692866    0.692513     0.004307
NI3480   NI        0.266214    0.702799    0.670243     0.004307
PD3481   PD        0.300423    0.668287    0.672363     0.005394
NI3482   NI        0.290310    0.727455    0.705902     0.004307
NI3483   NI        0.303232    0.669751    0.747325     0.004307
NI3484   NI        0.306656    0.674903    0.665739     0.004307
NI3485   NI        0.369499    0.671089    0.673129     0.004307
NI3486   NI        0.376733    0.707120    0.712435     0.004307
NI3487   NI        0.414303    0.675889    0.736230     0.004307
NI3488   NI        0.408243    0.707276    0.678568     0.004307
PD3489   PD        0.449088    0.666341    0.674602     0.005394
PD3490   PD        0.448209    0.703746    0.711429     0.005394
PD3491   PD        0.484353    0.666933    0.712214     0.005394
PD3492   PD        0.483117    0.705558    0.673627     0.005394
PD3493   PD        0.517192    0.665877    0.672622     0.005394
NI3494   NI        0.520331    0.703403    0.711754     0.004307
NI3495   NI        0.575397    0.690315    0.735740     0.004307
NI3496   NI        0.576786    0.694384    0.657242     0.004307
NI3497   NI        0.600317    0.655947    0.676624     0.004307
NI3498   NI        0.592259    0.702763    0.703852     0.004307
NI3499   NI        0.630873    0.668656    0.707890     0.004307
NI3500   NI        0.626286    0.700458    0.669900     0.004307
NI3501   NI        0.675174    0.674881    0.684824     0.004307
NI3502   NI        0.653156    0.696514    0.726880     0.004307
NI3503   NI        0.677040    0.652940    0.726872     0.004307
NI3504   NI        0.703123    0.706349    0.669130     0.004307
NI3505   NI        0.728837    0.674972    0.678285     0.004307
NI3506   NI        0.198251    0.760219    0.680130     0.004307
NI3507   NI        0.266423    0.740004    0.707385     0.004307
NI3508   NI        0.263708    0.777494    0.669111     0.004307
NI3509   NI        0.302315    0.766396    0.681227     0.004307
NI3510   NI        0.296721    0.812461    0.670819     0.004307
NI3511   NI        0.311598    0.725200    0.698867     0.004307
NI3512   NI        0.331579    0.791354    0.643179     0.004307
NI3513   NI        0.377176    0.740941    0.669754     0.004307
NI3514   NI        0.377037    0.780583    0.709693     0.004307
NI3515   NI        0.412703    0.742344    0.711183     0.004307
NI3516   NI        0.380993    0.789556    0.687959     0.004307
PD3517   PD        0.445679    0.738926    0.672676     0.005394
NI3518   NI        0.458161    0.779731    0.704833     0.004307
NI3519   NI        0.491702    0.772497    0.738033     0.004307
NI3520   NI        0.483493    0.778203    0.674339     0.004307
NI3521   NI        0.521333    0.739928    0.675311     0.004307
NI3522   NI        0.518954    0.779253    0.710599     0.004307
NI3523   NI        0.572614    0.737970    0.734950     0.004307
NI3524   NI        0.554301    0.775731    0.673885     0.004307
NI3525   NI        0.589912    0.738048    0.686830     0.004307
NI3526   NI        0.592903    0.778244    0.711247     0.004307
NI3527   NI        0.632656    0.735005    0.709352     0.004307
NI3528   NI        0.634470    0.808930    0.707959     0.004307
NI3529   NI        0.667745    0.742207    0.672738     0.004307
NI3530   NI        0.339751    0.811550    0.698869     0.004307
NI3531   NI        0.379776    0.825138    0.723307     0.004307
NI3532   NI        0.447627    0.814133    0.667559     0.004307
NI3533   NI        0.483431    0.812021    0.708685     0.004307
NI3534   NI        0.519862    0.814024    0.673882     0.004307
NI3535   NI        0.412176    0.117879    0.747168     0.004307
NI3536   NI        0.485982    0.117009    0.747677     0.004307
NI3537   NI        0.262419    0.172191    0.735933     0.004307
NI3538   NI        0.318536    0.148153    0.736627     0.004307
NI3539   NI        0.310891    0.214465    0.793505     0.004307
NI3540   NI        0.337402    0.193039    0.747105     0.004307
NI3541   NI        0.333216    0.149271    0.749964     0.004307
NI3542   NI        0.376059    0.201041    0.783703     0.004307
NI3543   NI        0.375269    0.191353    0.785045     0.004307
NI3544   NI        0.412714    0.190875    0.748878     0.004307
NI3545   NI        0.450654    0.190913    0.785485     0.004307
NI3546   NI        0.444922    0.189217    0.753570     0.004307
NI3547   NI        0.487198    0.151793    0.782832     0.004307
NI3548   NI        0.485576    0.190637    0.747963     0.004307
NI3549   NI        0.523981    0.151679    0.747679     0.004307
NI3550   NI        0.523374    0.188776    0.785241     0.004307
NI3551   NI        0.589793    0.189153    0.777267     0.004307
NI3552   NI        0.598448    0.154538    0.746997     0.004307
NI3553   NI        0.596826    0.190454    0.786164     0.004307
NI3554   NI        0.634086    0.190089    0.748826     0.004307
NI3555   NI        0.191521    0.264875    0.748622     0.004307
NI3556   NI        0.226924    0.194356    0.709563     0.004307
NI3557   NI        0.227962    0.264254    0.786391     0.004307
NI3558   NI        0.264725    0.230914    0.785666     0.004307
NI3559   NI        0.262149    0.261923    0.748281     0.004307
PD3560   PD        0.300244    0.228890    0.746990     0.005394
NI3561   NI        0.300947    0.263492    0.784998     0.004307
NI3562   NI        0.311454    0.214289    0.780446     0.004307
PD3563   PD        0.338587    0.263413    0.750897     0.005394
NI3564   NI        0.349989    0.238351    0.758546     0.004307
NI3565   NI        0.375924    0.262452    0.787971     0.004307
NI3566   NI        0.425300    0.212090    0.789838     0.004307
PD3567   PD        0.413857    0.263981    0.748358     0.005394
PD3568   PD        0.448681    0.226895    0.748333     0.005394
NI3569   NI        0.443789    0.285111    0.798814     0.004307
NI3570   NI        0.472568    0.196931    0.782035     0.004307
PD3571   PD        0.486067    0.264163    0.749246     0.005394
PD3572   PD        0.524445    0.227320    0.747279     0.005394
PD3573   PD        0.522963    0.263685    0.784883     0.005394
NI3574   NI        0.560335    0.228607    0.784504     0.004307
PD3575   PD        0.560817    0.264794    0.747753     0.005394
PD3576   PD        0.598372    0.226651    0.747804     0.005394
NI3577   NI        0.596844    0.264268    0.784568     0.004307
NI3578   NI        0.591495    0.266252    0.774805     0.004307
NI3579   NI        0.633191    0.264729    0.749883     0.004307
NI3580   NI        0.671022    0.228807    0.747557     0.004307
NI3581   NI        0.643681    0.276606    0.746596     0.004307
NI3582   NI        0.714867    0.243887    0.750451     0.004307
NI3583   NI        0.153459    0.338440    0.786101     0.004307
NI3584   NI        0.191201    0.301666    0.783407     0.004307
NI3585   NI        0.188609    0.330808    0.741017     0.004307
PD3586   PD        0.227422    0.300505    0.749840     0.005394
NI3587   NI        0.220683    0.372905    0.792055     0.004307
NI3588   NI        0.264341    0.302026    0.786252     0.004307
NI3589   NI        0.265274    0.335909    0.749660     0.004307
NI3590   NI        0.301526    0.299343    0.749884     0.004307
NI3591   NI        0.301777    0.338801    0.785816     0.004307
NI3592   NI        0.338103    0.258058    0.792537     0.004307
PD3593   PD        0.338749    0.334851    0.750106     0.005394
PD3594   PD        0.374898    0.301100    0.747670     0.005394
PD3595   PD        0.373883    0.339150    0.786646     0.005394
PD3596   PD        0.412432    0.301227    0.786403     0.005394
PD3597   PD        0.411868    0.336193    0.748482     0.005394
PD3598   PD        0.449358    0.301982    0.750275     0.005394
NI3599   NI        0.456814    0.375951    0.812006     0.004307
PD3600   PD        0.488074    0.302177    0.784190     0.005394
PD3601   PD        0.486582    0.337220    0.748085     0.005394
PD3602   PD        0.522705    0.299632    0.749235     0.005394
PD3603   PD        0.522753    0.338482    0.785328     0.005394
PD3604   PD        0.561538    0.302195    0.786117     0.005394
PD3605   PD        0.559148    0.337886    0.749903     0.005394
PD3606   PD        0.596435    0.301344    0.748299     0.005394
PD3607   PD        0.597085    0.338914    0.784557     0.005394
NI3608   NI        0.637539    0.265501    0.812182     0.004307
PD3609   PD        0.634041    0.339317    0.747380     0.005394
NI3610   NI        0.670101    0.299424    0.747908     0.004307
NI3611   NI        0.669753    0.340859    0.784864     0.004307
NI3612   NI        0.707340    0.304188    0.785022     0.004307
NI3613   NI        0.717604    0.368193    0.760174     0.004307
NI3614   NI        0.743075    0.264589    0.710898     0.004307
NI3615   NI        0.117122    0.413115    0.745856     0.004307
NI3616   NI        0.153059    0.376291    0.749736     0.004307
NI3617   NI        0.152574    0.412503    0.782370     0.004307
NI3618   NI        0.189796    0.379212    0.784607     0.004307
NI3619   NI        0.186764    0.439457    0.749145     0.004307
NI3620   NI        0.227564    0.372205    0.752213     0.004307
NI3621   NI        0.261737    0.442394    0.779427     0.004307
NI3622   NI        0.232323    0.379686    0.747423     0.004307
PD3623   PD        0.264949    0.411810    0.751052     0.005394
PD3624   PD        0.302689    0.374316    0.749499     0.005394
PD3625   PD        0.301484    0.410184    0.787172     0.005394
PD3626   PD        0.339158    0.372298    0.786318     0.005394
PD3627   PD        0.337730    0.412667    0.752303     0.005394
PD3628   PD        0.375647    0.375194    0.751950     0.005394
PD3629   PD        0.374773    0.411736    0.789371     0.005394
PD3630   PD        0.412447    0.373859    0.786237     0.005394
PD3631   PD        0.410019    0.411493    0.750651     0.005394
PD3632   PD        0.448735    0.374416    0.747047     0.005394
PD3633   PD        0.448582    0.412685    0.786544     0.005394
NI3634   NI        0.508594    0.373421    0.796801     0.004307
PD3635   PD        0.485915    0.409297    0.749120     0.005394
PD3636   PD        0.523372    0.373669    0.748743     0.005394
PD3637   PD        0.523869    0.410728    0.786444     0.005394
PD3638   PD        0.560026    0.374463    0.784875     0.005394
PD3639   PD        0.559064    0.411647    0.749057     0.005394
PD3640   PD        0.596728    0.374222    0.748310     0.005394
NI3641   NI        0.584178    0.433942    0.785755     0.004307
NI3642   NI        0.633895    0.375974    0.784464     0.004307
PD3643   PD        0.633381    0.411229    0.745777     0.005394
NI3644   NI        0.669944    0.375946    0.745700     0.004307
NI3645   NI        0.668633    0.415132    0.779985     0.004307
NI3646   NI        0.691616    0.389114    0.790867     0.004307
NI3647   NI        0.705761    0.411930    0.746788     0.004307
NI3648   NI        0.743522    0.374863    0.748461     0.004307
NI3649   NI        0.738406    0.410201    0.781580     0.004307
NI3650   NI        0.781563    0.413000    0.747478     0.004307
NI3651   NI        0.122366    0.518230    0.783162     0.004307
NI3652   NI        0.158905    0.486254    0.782095     0.004307
NI3653   NI        0.115019    0.506009    0.779923     0.004307
NI3654   NI        0.180678    0.450433    0.760768     0.004307
NI3655   NI        0.193455    0.487087    0.747905     0.004307
NI3656   NI        0.231551    0.448943    0.749324     0.004307
NI3657   NI        0.228280    0.485321    0.785717     0.004307
NI3658   NI        0.266180    0.446989    0.787211     0.004307
NI3659   NI        0.261035    0.485424    0.754620     0.004307
PD3660   PD        0.303287    0.448140    0.753370     0.005394
NI3661   NI        0.275153    0.497030    0.801406     0.004307
PD3662   PD        0.338449    0.448568    0.787353     0.005394
NI3663   NI        0.347227    0.470802    0.752359     0.004307
NI3664   NI        0.375455    0.479216    0.773317     0.004307
PD3665   PD        0.373377    0.484931    0.786573     0.005394
PD3666   PD        0.412094    0.450269    0.786710     0.005394
PD3667   PD        0.411196    0.486134    0.750442     0.005394
PD3668   PD        0.446295    0.450638    0.751745     0.005394
NI3669   NI        0.450781    0.445843    0.818800     0.004307
PD3670   PD        0.485349    0.446894    0.785997     0.005394
PD3671   PD        0.483639    0.484169    0.749283     0.005394
PD3672   PD        0.520502    0.446857    0.749725     0.005394
NI3673   NI        0.537456    0.496064    0.755707     0.004307
NI3674   NI        0.558028    0.446244    0.787772     0.004307
NI3675   NI        0.565950    0.470251    0.755086     0.004307
NI3676   NI        0.613796    0.452118    0.765195     0.004307
NI3677   NI        0.625397    0.468718    0.811198     0.004307
NI3678   NI        0.634004    0.448956    0.783340     0.004307
PD3679   PD        0.629934    0.525069    0.707620     0.005394
NI3680   NI        0.668838    0.447616    0.745252     0.004307
NI3681   NI        0.669665    0.485551    0.784256     0.004307
NI3682   NI        0.706799    0.448855    0.781389     0.004307
NI3683   NI        0.702962    0.482517    0.744960     0.004307
NI3684   NI        0.744072    0.448368    0.746332     0.004307
NI3685   NI        0.740681    0.484172    0.780823     0.004307
NI3686   NI        0.778156    0.487780    0.744686     0.004307
NI3687   NI        0.153600    0.522665    0.747268     0.004307
NI3688   NI        0.210874    0.525319    0.813186     0.004307
NI3689   NI        0.190669    0.560936    0.748870     0.004307
NI3690   NI        0.243196    0.528579    0.772250     0.004307
NI3691   NI        0.229773    0.561109    0.783920     0.004307
NI3692   NI        0.257869    0.542936    0.804296     0.004307
PD3693   PD        0.263740    0.560179    0.746965     0.005394
PD3694   PD        0.301405    0.523595    0.748542     0.005394
NI3695   NI        0.301672    0.561783    0.783327     0.004307
NI3696   NI        0.301195    0.484977    0.785181     0.004307
PD3697   PD        0.339283    0.558070    0.747980     0.005394
PD3698   PD        0.377227    0.524284    0.750256     0.005394
NI3699   NI        0.375792    0.558007    0.788584     0.004307
NI3700   NI        0.436739    0.542502    0.792553     0.004307
PD3701   PD        0.414910    0.558513    0.749230     0.005394
PD3702   PD        0.450002    0.521207    0.750239     0.005394
PD3703   PD        0.450370    0.558595    0.784964     0.005394
NI3704   NI        0.510337    0.527270    0.783949     0.004307
PD3705   PD        0.485621    0.556904    0.749557     0.005394
PD3706   PD        0.521638    0.522192    0.749327     0.005394
PD3707   PD        0.523590    0.558645    0.788359     0.005394
PD3708   PD        0.558401    0.522077    0.786005     0.005394
PD3709   PD        0.560411    0.561247    0.748162     0.005394
PD3710   PD        0.595813    0.522204    0.748304     0.005394
NI3711   NI        0.602994    0.576985    0.802946     0.004307
NI3712   NI        0.637362    0.523795    0.781678     0.004307
NI3713   NI        0.630229    0.557999    0.746205     0.004307
NI3714   NI        0.694087    0.524429    0.778965     0.004307
NI3715   NI        0.663730    0.565877    0.779466     0.004307
NI3716   NI        0.701134    0.526050    0.786580     0.004307
NI3717   NI        0.703465    0.559669    0.747192     0.004307
NI3718   NI        0.736731    0.533293    0.762199     0.004307
NI3719   NI        0.153552    0.594828    0.745655     0.004307
NI3720   NI        0.223688    0.611006    0.795596     0.004307
NI3721   NI        0.196365    0.636260    0.741901     0.004307
NI3722   NI        0.228168    0.597025    0.747341     0.004307
NI3723   NI        0.233272    0.632598    0.781017     0.004307
NI3724   NI        0.266123    0.594080    0.784912     0.004307
NI3725   NI        0.286627    0.641466    0.754626     0.004307
PD3726   PD        0.299903    0.596541    0.752039     0.005394
NI3727   NI        0.308358    0.645581    0.813318     0.004307
NI3728   NI        0.336981    0.597823    0.787032     0.004307
PD3729   PD        0.338057    0.632666    0.748820     0.005394
PD3730   PD        0.375363    0.594462    0.750603     0.005394
NI3731   NI        0.375436    0.633698    0.785766     0.004307
PD3732   PD        0.412117    0.597388    0.784741     0.005394
NI3733   NI        0.410854    0.634851    0.747013     0.004307
PD3734   PD        0.447999    0.594444    0.748553     0.005394
NI3735   NI        0.447741    0.629432    0.783371     0.004307
PD3736   PD        0.487278    0.594422    0.787502     0.005394
PD3737   PD        0.486943    0.629673    0.751097     0.005394
PD3738   PD        0.523222    0.593663    0.749169     0.005394
NI3739   NI        0.521511    0.633504    0.786305     0.004307
NI3740   NI        0.558127    0.595704    0.785742     0.004307
NI3741   NI        0.555584    0.632344    0.748397     0.004307
NI3742   NI        0.604443    0.573788    0.753983     0.004307
NI3743   NI        0.562280    0.664533    0.774642     0.004307
NI3744   NI        0.631657    0.595468    0.784039     0.004307
NI3745   NI        0.619498    0.647706    0.752762     0.004307
NI3746   NI        0.667045    0.595951    0.743395     0.004307
NI3747   NI        0.683535    0.635583    0.776805     0.004307
NI3748   NI        0.703165    0.592048    0.785390     0.004307
NI3749   NI        0.667553    0.644753    0.728886     0.004307
NI3750   NI        0.740548    0.596905    0.744874     0.004307
NI3751   NI        0.232792    0.667811    0.745466     0.004307
NI3752   NI        0.270163    0.672997    0.781024     0.004307
NI3753   NI        0.265376    0.705900    0.744312     0.004307
NI3754   NI        0.304058    0.683353    0.732912     0.004307
NI3755   NI        0.309394    0.709534    0.777701     0.004307
NI3756   NI        0.338611    0.670838    0.786663     0.004307
NI3757   NI        0.346299    0.701273    0.745271     0.004307
NI3758   NI        0.386146    0.672981    0.750964     0.004307
NI3759   NI        0.373431    0.703795    0.786458     0.004307
NI3760   NI        0.412910    0.668741    0.784355     0.004307
NI3761   NI        0.391648    0.718175    0.740752     0.004307
NI3762   NI        0.439811    0.673037    0.730802     0.004307
NI3763   NI        0.449269    0.706752    0.784158     0.004307
NI3764   NI        0.484127    0.669584    0.784228     0.004307
NI3765   NI        0.484239    0.704313    0.746987     0.004307
PD3766   PD        0.519752    0.668415    0.747404     0.005394
NI3767   NI        0.519665    0.703687    0.784148     0.004307
NI3768   NI        0.558308    0.669607    0.786702     0.004307
NI3769   NI        0.556300    0.706093    0.749176     0.004307
NI3770   NI        0.618235    0.664286    0.729522     0.004307
NI3771   NI        0.590883    0.706183    0.784352     0.004307
NI3772   NI        0.635016    0.703349    0.817501     0.004307
NI3773   NI        0.619546    0.723722    0.750014     0.004307
NI3774   NI        0.663441    0.668816    0.744220     0.004307
NI3775   NI        0.304439    0.744281    0.746179     0.004307
NI3776   NI        0.351356    0.743634    0.771228     0.004307
NI3777   NI        0.410348    0.737204    0.781968     0.004307
NI3778   NI        0.408133    0.803374    0.742352     0.004307
NI3779   NI        0.435998    0.760874    0.746170     0.004307
NI3780   NI        0.466725    0.755455    0.781350     0.004307
NI3781   NI        0.482350    0.780176    0.746739     0.004307
NI3782   NI        0.522098    0.741855    0.748019     0.004307
NI3783   NI        0.597698    0.737432    0.743940     0.004307
NI3784   NI        0.414391    0.225800    0.858807     0.004307
NI3785   NI        0.510763    0.181889    0.812686     0.004307
NI3786   NI        0.266018    0.265442    0.821450     0.004307
NI3787   NI        0.338141    0.264228    0.821749     0.004307
NI3788   NI        0.360339    0.213917    0.798982     0.004307
NI3789   NI        0.375863    0.262226    0.859137     0.004307
NI3790   NI        0.412287    0.264291    0.823620     0.004307
NI3791   NI        0.470570    0.201537    0.830117     0.004307
NI3792   NI        0.450248    0.261986    0.859806     0.004307
NI3793   NI        0.487695    0.265698    0.821148     0.004307
NI3794   NI        0.523800    0.227168    0.821890     0.004307
NI3795   NI        0.524908    0.263829    0.829419     0.004307
NI3796   NI        0.561223    0.264708    0.820626     0.004307
NI3797   NI        0.632611    0.267141    0.821921     0.004307
NI3798   NI        0.222061    0.338168    0.830875     0.004307
NI3799   NI        0.305026    0.302669    0.820770     0.004307
NI3800   NI        0.296479    0.324146    0.843376     0.004307
NI3801   NI        0.338857    0.300150    0.858775     0.004307
NI3802   NI        0.343117    0.338093    0.824080     0.004307
NI3803   NI        0.375546    0.301364    0.824593     0.004307
NI3804   NI        0.374807    0.337508    0.859445     0.004307
NI3805   NI        0.413342    0.299069    0.859424     0.004307
NI3806   NI        0.412427    0.336421    0.824793     0.004307
NI3807   NI        0.449900    0.300109    0.823974     0.004307
NI3808   NI        0.450874    0.336437    0.859876     0.004307
NI3809   NI        0.487516    0.302447    0.859735     0.004307
PD3810   PD        0.485820    0.337074    0.823858     0.005394
NI3811   NI        0.523224    0.300684    0.823059     0.004307
NI3812   NI        0.522808    0.337862    0.859110     0.004307
NI3813   NI        0.558997    0.299202    0.859497     0.004307
NI3814   NI        0.551287    0.324184    0.799365     0.004307
NI3815   NI        0.632283    0.338121    0.819206     0.004307
NI3816   NI        0.568757    0.359147    0.837221     0.004307
NI3817   NI        0.629776    0.302199    0.780465     0.004307
NI3818   NI        0.203310    0.412651    0.822200     0.004307
NI3819   NI        0.221109    0.355762    0.837088     0.004307
NI3820   NI        0.265646    0.375514    0.860790     0.004307
NI3821   NI        0.264414    0.411917    0.826978     0.004307
NI3822   NI        0.302400    0.375513    0.824400     0.004307
NI3823   NI        0.301203    0.409169    0.860699     0.004307
NI3824   NI        0.300493    0.339134    0.859054     0.004307
PD3825   PD        0.339175    0.412031    0.824137     0.005394
NI3826   NI        0.347139    0.347169    0.830800     0.004307
NI3827   NI        0.378393    0.412540    0.859813     0.004307
NI3828   NI        0.411575    0.373382    0.860911     0.004307
NI3829   NI        0.420385    0.434065    0.838133     0.004307
NI3830   NI        0.449561    0.373800    0.826265     0.004307
NI3831   NI        0.421729    0.411281    0.886581     0.004307
NI3832   NI        0.487554    0.373571    0.861158     0.004307
PD3833   PD        0.486622    0.412577    0.824344     0.005394
PD3834   PD        0.522909    0.374824    0.822859     0.005394
NI3835   NI        0.523480    0.410705    0.860997     0.004307
NI3836   NI        0.561181    0.375157    0.857015     0.004307
PD3837   PD        0.558598    0.410353    0.822333     0.005394
NI3838   NI        0.605081    0.388921    0.825227     0.004307
NI3839   NI        0.610070    0.367407    0.869779     0.004307
NI3840   NI        0.635724    0.409304    0.887764     0.004307
NI3841   NI        0.634606    0.413225    0.819031     0.004307
NI3842   NI        0.661631    0.352332    0.805752     0.004307
NI3843   NI        0.704663    0.415302    0.819583     0.004307
NI3844   NI        0.189182    0.483522    0.821903     0.004307
NI3845   NI        0.229337    0.448287    0.824770     0.004307
NI3846   NI        0.237717    0.456175    0.821114     0.004307
NI3847   NI        0.275562    0.503957    0.832468     0.004307
NI3848   NI        0.298980    0.441408    0.813058     0.004307
NI3849   NI        0.302697    0.485831    0.859933     0.004307
NI3850   NI        0.338880    0.449965    0.861077     0.004307
NI3851   NI        0.339492    0.485054    0.823911     0.004307
PD3852   PD        0.373214    0.447492    0.824302     0.005394
NI3853   NI        0.374794    0.484931    0.861200     0.004307
NI3854   NI        0.412321    0.447736    0.862258     0.004307
NI3855   NI        0.412365    0.486676    0.823273     0.004307
NI3856   NI        0.450989    0.443167    0.828676     0.004307
NI3857   NI        0.450137    0.484435    0.858538     0.004307
NI3858   NI        0.486802    0.449928    0.860242     0.004307
NI3859   NI        0.487181    0.485948    0.823366     0.004307
NI3860   NI        0.523819    0.447419    0.822088     0.004307
NI3861   NI        0.524678    0.522024    0.896356     0.004307
NI3862   NI        0.560490    0.448372    0.860402     0.004307
NI3863   NI        0.556912    0.475386    0.837452     0.004307
NI3864   NI        0.596431    0.442771    0.830561     0.004307
NI3865   NI        0.597978    0.487459    0.858997     0.004307
NI3866   NI        0.634941    0.449605    0.855415     0.004307
NI3867   NI        0.627957    0.483238    0.820987     0.004307
NI3868   NI        0.669917    0.450802    0.817457     0.004307
NI3869   NI        0.706674    0.486889    0.816741     0.004307
NI3870   NI        0.227305    0.522912    0.823601     0.004307
NI3871   NI        0.286447    0.501175    0.880883     0.004307
NI3872   NI        0.226088    0.554358    0.858109     0.004307
NI3873   NI        0.303549    0.540601    0.851852     0.004307
NI3874   NI        0.334851    0.569558    0.876875     0.004307
NI3875   NI        0.313377    0.544762    0.869136     0.004307
NI3876   NI        0.339020    0.559756    0.824133     0.004307
NI3877   NI        0.402518    0.508667    0.790020     0.004307
NI3878   NI        0.397903    0.550572    0.833399     0.004307
NI3879   NI        0.414152    0.522738    0.861589     0.004307
NI3880   NI        0.378287    0.562578    0.858326     0.004307
NI3881   NI        0.444531    0.549569    0.851044     0.004307
NI3882   NI        0.427505    0.560428    0.874419     0.004307
NI3883   NI        0.487776    0.522167    0.861491     0.004307
NI3884   NI        0.488693    0.559246    0.822649     0.004307
NI3885   NI        0.522578    0.521666    0.823906     0.004307
NI3886   NI        0.523849    0.559300    0.860350     0.004307
NI3887   NI        0.560550    0.520918    0.861239     0.004307
NI3888   NI        0.575654    0.584940    0.814595     0.004307
NI3889   NI        0.633939    0.524075    0.856845     0.004307
NI3890   NI        0.592394    0.554511    0.850022     0.004307
NI3891   NI        0.598807    0.524110    0.894131     0.004307
NI3892   NI        0.633952    0.559589    0.820997     0.004307
NI3893   NI        0.667257    0.516402    0.821402     0.004307
NI3894   NI        0.262392    0.631512    0.822109     0.004307
NI3895   NI        0.300696    0.595885    0.823534     0.004307
NI3896   NI        0.328765    0.618816    0.886877     0.004307
NI3897   NI        0.339506    0.632568    0.820899     0.004307
NI3898   NI        0.374288    0.596164    0.820169     0.004307
NI3899   NI        0.370769    0.626550    0.857960     0.004307
NI3900   NI        0.375707    0.597251    0.898208     0.004307
NI3901   NI        0.411635    0.632021    0.822245     0.004307
NI3902   NI        0.447628    0.592130    0.823888     0.004307
NI3903   NI        0.445114    0.626783    0.859470     0.004307
NI3904   NI        0.521600    0.633809    0.860935     0.004307
NI3905   NI        0.447300    0.670754    0.820461     0.004307
NI3906   NI        0.524350    0.596965    0.820995     0.004307
NI3907   NI        0.482714    0.636705    0.867567     0.004307
NI3908   NI        0.556801    0.597349    0.855421     0.004307
NI3909   NI        0.560369    0.633024    0.822441     0.004307
NI3910   NI        0.595157    0.595717    0.821661     0.004307
NI3911   NI        0.638107    0.650927    0.807276     0.004307
NI3912   NI        0.376089    0.670292    0.822858     0.004307
NI3913   NI        0.412325    0.704506    0.823050     0.004307
NI3914   NI        0.418800    0.693960    0.821194     0.004307
NI3915   NI        0.483558    0.712368    0.798906     0.004307
NI3916   NI        0.519399    0.670388    0.822340     0.004307
NI3917   NI        0.413460    0.411427    0.895444     0.004307
NI3918   NI        0.450111    0.374517    0.894272     0.004307
NI3919   NI        0.494680    0.429720    0.888154     0.004307
NI3920   NI        0.376143    0.447428    0.898906     0.004307
NI3921   NI        0.390763    0.510277    0.903523     0.004307
NI3922   NI        0.449802    0.449608    0.896579     0.004307
NI3923   NI        0.489152    0.482749    0.896386     0.004307
NI3924   NI        0.524066    0.447027    0.897156     0.004307
NI3925   NI        0.451092    0.522486    0.897521     0.004307
