data_00001
_audit_creation_method   'DISCUS'

_data_chemical_name_common 'Au.cell: Pearson 85'

_cell_length_a             57.1046
_cell_length_b             57.1046
_cell_length_c             57.1046
_cell_angle_alpha     90.0000
_cell_angle_beta      90.0000
_cell_angle_gamma     90.0000

_symmetry_space_group_name_H-M   'P1              '

loop_
_atom_site_label
_atom_site_symbol
_atom_site_fract_x
_atom_site_fract_y
_atom_site_fract_z
_atom_site_u_iso_or_equiv
AU1   AU        0.369350    0.259760    0.037638     0.007504
AU2   AU        0.440752    0.259818    0.039237     0.007504
AU3   AU        0.516105    0.251309    0.042906     0.007504
AU4   AU        0.297238    0.338420    0.037191     0.007504
AU5   AU        0.334997    0.299824    0.035967     0.007504
AU6   AU        0.372348    0.336143    0.038588     0.007504
AU7   AU        0.406470    0.298156    0.040064     0.007504
AU8   AU        0.444469    0.328910    0.039835     0.007504
AU9   AU        0.478783    0.287323    0.041049     0.007504
AU10   AU        0.517681    0.321510    0.041508     0.007504
AU11   AU        0.558057    0.286227    0.041361     0.007504
AU12   AU        0.594027    0.321776    0.046171     0.007504
AU13   AU        0.264208    0.379024    0.038882     0.007504
AU14   AU        0.303983    0.411505    0.037688     0.007504
AU15   AU        0.338514    0.373482    0.037026     0.007504
AU16   AU        0.378974    0.408186    0.040292     0.007504
AU17   AU        0.412480    0.366762    0.041923     0.007504
AU18   AU        0.413736    0.403382    0.004894     0.007504
AU19   AU        0.448427    0.366996    0.003679     0.007504
AU20   AU        0.450864    0.403457    0.040452     0.007504
AU21   AU        0.483700    0.362115    0.040855     0.007504
AU22   AU        0.487328    0.400403    0.004836     0.007504
AU23   AU        0.523028    0.397687    0.042360     0.007504
AU24   AU        0.556179    0.360507    0.044393     0.007504
AU25   AU        0.592469    0.395528    0.045690     0.007504
AU26   AU        0.627952    0.358985    0.046432     0.007504
AU27   AU        0.268781    0.447863    0.036353     0.007504
AU28   AU        0.308642    0.482350    0.036671     0.007504
AU29   AU        0.342068    0.445275    0.038857     0.007504
AU30   AU        0.377433    0.440402    0.000714     0.007504
AU31   AU        0.380593    0.479669    0.037891     0.007504
AU32   AU        0.414266    0.440842    0.038764     0.007504
AU33   AU        0.416723    0.479256    0.002005     0.007504
AU34   AU        0.452585    0.439613    0.004688     0.007504
AU35   AU        0.452821    0.476016    0.042651     0.007504
AU36   AU        0.486257    0.438310    0.041491     0.007504
AU37   AU        0.490716    0.471465    0.004497     0.007504
AU38   AU        0.525984    0.436681    0.007935     0.007504
AU39   AU        0.523135    0.472380    0.044575     0.007504
AU40   AU        0.559697    0.434020    0.044514     0.007504
AU41   AU        0.595633    0.469977    0.044707     0.007504
AU42   AU        0.628349    0.429758    0.043462     0.007504
AU43   AU        0.273690    0.516496    0.039068     0.007504
AU44   AU        0.313731    0.553650    0.036572     0.007504
AU45   AU        0.345375    0.515438    0.040793     0.007504
AU46   AU        0.384243    0.551477    0.040195     0.007504
AU47   AU        0.418395    0.514734    0.042681     0.007504
AU48   AU        0.458100    0.510946    0.004339     0.007504
AU49   AU        0.456901    0.547899    0.041772     0.007504
AU50   AU        0.490886    0.508483    0.042855     0.007504
AU51   AU        0.525584    0.545723    0.043297     0.007504
AU52   AU        0.561109    0.507705    0.042593     0.007504
AU53   AU        0.599245    0.542904    0.043048     0.007504
AU54   AU        0.633883    0.503012    0.045562     0.007504
AU55   AU        0.348163    0.589179    0.039727     0.007504
AU56   AU        0.389038    0.625200    0.040457     0.007504
AU57   AU        0.422401    0.586481    0.037874     0.007504
AU58   AU        0.459677    0.622021    0.042746     0.007504
AU59   AU        0.493191    0.585060    0.044160     0.007504
AU60   AU        0.532431    0.615496    0.044993     0.007504
AU61   AU        0.566388    0.578562    0.043555     0.007504
AU62   AU        0.292497    0.191176    0.109849     0.007504
AU63   AU        0.363173    0.186596    0.109808     0.007504
AU64   AU        0.400044    0.149150    0.113298     0.007504
AU65   AU        0.401985    0.185489    0.077226     0.007504
AU66   AU        0.437992    0.184565    0.113674     0.007504
AU67   AU        0.469814    0.146568    0.114672     0.007504
AU68   AU        0.475891    0.182786    0.079199     0.007504
AU69   AU        0.509164    0.181273    0.116111     0.007504
AU70   AU        0.580609    0.174115    0.116469     0.007504
AU71   AU        0.222226    0.269910    0.109501     0.007504
AU72   AU        0.255726    0.229723    0.105499     0.007504
AU73   AU        0.257124    0.268436    0.071053     0.007504
AU74   AU        0.293633    0.264438    0.103938     0.007504
AU75   AU        0.331169    0.226377    0.110377     0.007504
AU76   AU        0.333201    0.264855    0.073385     0.007504
AU77   AU        0.369497    0.224266    0.072179     0.007504
AU78   AU        0.367743    0.265271    0.110906     0.007504
AU79   AU        0.402615    0.222375    0.113906     0.007504
AU80   AU        0.402651    0.259294    0.074940     0.007504
AU81   AU        0.436922    0.220923    0.074863     0.007504
AU82   AU        0.438187    0.259755    0.112348     0.007504
AU83   AU        0.473383    0.218572    0.112797     0.007504
AU84   AU        0.477177    0.250263    0.076262     0.007504
AU85   AU        0.512118    0.215648    0.079826     0.007504
AU86   AU        0.513725    0.252668    0.116028     0.007504
AU87   AU        0.548403    0.215734    0.116569     0.007504
AU88   AU        0.552173    0.249597    0.080665     0.007504
AU89   AU        0.584440    0.247906    0.117139     0.007504
AU90   AU        0.620239    0.208434    0.116884     0.007504
AU91   AU        0.620397    0.246845    0.081535     0.007504
AU92   AU        0.660980    0.246211    0.116133     0.007504
AU93   AU        0.186543    0.307883    0.107876     0.007504
AU94   AU        0.227495    0.339888    0.108059     0.007504
AU95   AU        0.262005    0.302270    0.109762     0.007504
AU96   AU        0.262898    0.339852    0.073787     0.007504
AU97   AU        0.297623    0.303237    0.072342     0.007504
AU98   AU        0.301199    0.339249    0.111198     0.007504
AU99   AU        0.331087    0.300977    0.109554     0.007504
AU100   AU        0.335001    0.338078    0.076358     0.007504
AU101   AU        0.369045    0.299364    0.074500     0.007504
AU102   AU        0.369614    0.332772    0.112074     0.007504
AU103   AU        0.405137    0.299713    0.115028     0.007504
AU104   AU        0.408243    0.331950    0.076773     0.007504
AU105   AU        0.440085    0.292060    0.077609     0.007504
AU106   AU        0.442868    0.331982    0.112394     0.007504
AU107   AU        0.478084    0.290943    0.112882     0.007504
AU108   AU        0.481761    0.327717    0.076939     0.007504
AU109   AU        0.517271    0.286836    0.077063     0.007504
AU110   AU        0.516839    0.324450    0.113061     0.007504
AU111   AU        0.550738    0.286470    0.116300     0.007504
AU112   AU        0.554099    0.323197    0.077104     0.007504
AU113   AU        0.589174    0.287436    0.082206     0.007504
AU114   AU        0.590446    0.321480    0.116163     0.007504
AU115   AU        0.624880    0.283568    0.116882     0.007504
AU116   AU        0.627441    0.321146    0.083924     0.007504
AU117   AU        0.662871    0.320361    0.119687     0.007504
AU118   AU        0.697626    0.281159    0.116164     0.007504
AU119   AU        0.156560    0.417137    0.107591     0.007504
AU120   AU        0.190386    0.378028    0.108884     0.007504
AU121   AU        0.194520    0.416498    0.069915     0.007504
AU122   AU        0.227786    0.376854    0.075312     0.007504
AU123   AU        0.228060    0.414758    0.111982     0.007504
AU124   AU        0.264355    0.375477    0.112430     0.007504
AU125   AU        0.266535    0.414750    0.078981     0.007504
AU126   AU        0.299723    0.374506    0.074296     0.007504
AU127   AU        0.301595    0.408077    0.113409     0.007504
AU128   AU        0.336610    0.371591    0.112391     0.007504
AU129   AU        0.339175    0.408526    0.075033     0.007504
AU130   AU        0.371913    0.370490    0.075963     0.007504
AU131   AU        0.372516    0.406131    0.112853     0.007504
AU132   AU        0.408876    0.370636    0.112771     0.007504
AU133   AU        0.410181    0.403568    0.078755     0.007504
AU134   AU        0.447448    0.367595    0.075235     0.007504
AU135   AU        0.448043    0.402692    0.112588     0.007504
AU136   AU        0.484736    0.365440    0.113358     0.007504
AU137   AU        0.485071    0.398684    0.075603     0.007504
AU138   AU        0.519670    0.361762    0.078571     0.007504
AU139   AU        0.519862    0.399757    0.114218     0.007504
AU140   AU        0.553738    0.358801    0.113829     0.007504
AU141   AU        0.556824    0.398390    0.080045     0.007504
AU142   AU        0.590146    0.359068    0.080634     0.007504
AU143   AU        0.589985    0.393967    0.116529     0.007504
AU144   AU        0.627311    0.360321    0.116211     0.007504
AU145   AU        0.629838    0.395312    0.079553     0.007504
AU146   AU        0.666337    0.355051    0.079845     0.007504
AU147   AU        0.666141    0.391938    0.114143     0.007504
AU148   AU        0.699338    0.353463    0.117604     0.007504
AU149   AU        0.703235    0.390499    0.081110     0.007504
AU150   AU        0.737080    0.390210    0.119036     0.007504
AU151   AU        0.163942    0.489691    0.108877     0.007504
AU152   AU        0.196445    0.453027    0.108740     0.007504
AU153   AU        0.199192    0.486642    0.070251     0.007504
AU154   AU        0.233425    0.450138    0.071956     0.007504
AU155   AU        0.234624    0.486752    0.107392     0.007504
AU156   AU        0.269642    0.449109    0.113284     0.007504
AU157   AU        0.269723    0.484238    0.076004     0.007504
AU158   AU        0.304520    0.445745    0.073514     0.007504
AU159   AU        0.307374    0.479274    0.109230     0.007504
AU160   AU        0.338294    0.444046    0.112622     0.007504
AU161   AU        0.342704    0.480285    0.075192     0.007504
AU162   AU        0.378157    0.443244    0.077503     0.007504
AU163   AU        0.376590    0.476724    0.111810     0.007504
AU164   AU        0.409796    0.439604    0.113868     0.007504
AU165   AU        0.415582    0.477184    0.077593     0.007504
AU166   AU        0.448416    0.439498    0.078021     0.007504
AU167   AU        0.450961    0.476391    0.112298     0.007504
AU168   AU        0.484430    0.436507    0.114332     0.007504
AU169   AU        0.486374    0.474554    0.079993     0.007504
AU170   AU        0.524281    0.436490    0.079142     0.007504
AU171   AU        0.523918    0.469761    0.114557     0.007504
AU172   AU        0.556419    0.432818    0.115092     0.007504
AU173   AU        0.559475    0.469840    0.081409     0.007504
AU174   AU        0.594294    0.432177    0.080259     0.007504
AU175   AU        0.598891    0.465428    0.116892     0.007504
AU176   AU        0.630526    0.427412    0.116356     0.007504
AU177   AU        0.634012    0.467104    0.079046     0.007504
AU178   AU        0.668415    0.431505    0.080597     0.007504
AU179   AU        0.668392    0.465691    0.119330     0.007504
AU180   AU        0.700954    0.426955    0.118538     0.007504
AU181   AU        0.706775    0.464612    0.084161     0.007504
AU182   AU        0.740952    0.459489    0.121318     0.007504
AU183   AU        0.197609    0.527351    0.108068     0.007504
AU184   AU        0.235782    0.523163    0.073024     0.007504
AU185   AU        0.236189    0.560073    0.104962     0.007504
AU186   AU        0.272994    0.522360    0.107681     0.007504
AU187   AU        0.273883    0.558348    0.071598     0.007504
AU188   AU        0.309731    0.517184    0.075669     0.007504
AU189   AU        0.309803    0.555102    0.110024     0.007504
AU190   AU        0.346160    0.516713    0.110606     0.007504
AU191   AU        0.346962    0.552397    0.075357     0.007504
AU192   AU        0.379843    0.514041    0.075991     0.007504
AU193   AU        0.382304    0.552169    0.110062     0.007504
AU194   AU        0.413768    0.513614    0.113566     0.007504
AU195   AU        0.420740    0.550983    0.078438     0.007504
AU196   AU        0.451323    0.511776    0.077590     0.007504
AU197   AU        0.453768    0.547986    0.115098     0.007504
AU198   AU        0.489283    0.512216    0.118053     0.007504
AU199   AU        0.489933    0.547237    0.080301     0.007504
AU200   AU        0.524682    0.508444    0.080440     0.007504
AU201   AU        0.527771    0.544061    0.117974     0.007504
AU202   AU        0.563481    0.506738    0.115789     0.007504
AU203   AU        0.562345    0.542875    0.078477     0.007504
AU204   AU        0.596463    0.507083    0.081294     0.007504
AU205   AU        0.599254    0.538843    0.117273     0.007504
AU206   AU        0.633573    0.502408    0.115828     0.007504
AU207   AU        0.636372    0.538957    0.081809     0.007504
AU208   AU        0.671858    0.501457    0.080238     0.007504
AU209   AU        0.670472    0.536908    0.115789     0.007504
AU210   AU        0.704514    0.501372    0.118946     0.007504
AU211   AU        0.201159    0.599555    0.104885     0.007504
AU212   AU        0.239064    0.633904    0.102216     0.007504
AU213   AU        0.272316    0.596454    0.106726     0.007504
AU214   AU        0.279809    0.629436    0.067994     0.007504
AU215   AU        0.312674    0.593202    0.072497     0.007504
AU216   AU        0.313209    0.629307    0.107964     0.007504
AU217   AU        0.346977    0.590311    0.111704     0.007504
AU218   AU        0.349501    0.626212    0.072466     0.007504
AU219   AU        0.385510    0.587619    0.073571     0.007504
AU220   AU        0.388362    0.625184    0.110647     0.007504
AU221   AU        0.421228    0.586313    0.112768     0.007504
AU222   AU        0.421879    0.621082    0.078267     0.007504
AU223   AU        0.456484    0.585530    0.077415     0.007504
AU224   AU        0.458101    0.618143    0.114779     0.007504
AU225   AU        0.492763    0.581321    0.115915     0.007504
AU226   AU        0.496254    0.618826    0.082813     0.007504
AU227   AU        0.529507    0.579542    0.081596     0.007504
AU228   AU        0.532989    0.618150    0.117078     0.007504
AU229   AU        0.566151    0.576643    0.117908     0.007504
AU230   AU        0.568559    0.614549    0.080184     0.007504
AU231   AU        0.599963    0.576146    0.080979     0.007504
AU232   AU        0.602995    0.613779    0.117492     0.007504
AU233   AU        0.635872    0.575582    0.117331     0.007504
AU234   AU        0.636404    0.613967    0.080952     0.007504
AU235   AU        0.671427    0.609240    0.119195     0.007504
AU236   AU        0.707962    0.571612    0.118804     0.007504
AU237   AU        0.278487    0.664693    0.107313     0.007504
AU238   AU        0.316196    0.700747    0.108846     0.007504
AU239   AU        0.353637    0.661773    0.112017     0.007504
AU240   AU        0.390682    0.661162    0.075382     0.007504
AU241   AU        0.390970    0.696658    0.112666     0.007504
AU242   AU        0.425075    0.659335    0.112266     0.007504
AU243   AU        0.428380    0.693897    0.077163     0.007504
AU244   AU        0.459812    0.654549    0.077555     0.007504
AU245   AU        0.460651    0.694797    0.113750     0.007504
AU246   AU        0.497129    0.656519    0.117650     0.007504
AU247   AU        0.503678    0.690798    0.078396     0.007504
AU248   AU        0.534757    0.652778    0.081737     0.007504
AU249   AU        0.536915    0.693207    0.115407     0.007504
AU250   AU        0.568000    0.653108    0.118382     0.007504
AU251   AU        0.605507    0.688706    0.121049     0.007504
AU252   AU        0.637797    0.648802    0.119407     0.007504
AU253   AU        0.425828    0.731559    0.111878     0.007504
AU254   AU        0.497560    0.726802    0.113524     0.007504
AU255   AU        0.287345    0.120645    0.181566     0.007504
AU256   AU        0.362789    0.118688    0.181690     0.007504
AU257   AU        0.395478    0.077630    0.188245     0.007504
AU258   AU        0.398891    0.113314    0.149765     0.007504
AU259   AU        0.433839    0.111857    0.187865     0.007504
AU260   AU        0.466130    0.073068    0.186649     0.007504
AU261   AU        0.469579    0.113713    0.153847     0.007504
AU262   AU        0.505800    0.108275    0.188840     0.007504
AU263   AU        0.574098    0.106354    0.193507     0.007504
AU264   AU        0.217050    0.195815    0.179866     0.007504
AU265   AU        0.249814    0.157421    0.181960     0.007504
AU266   AU        0.254500    0.194096    0.144526     0.007504
AU267   AU        0.287089    0.155780    0.145351     0.007504
AU268   AU        0.292925    0.194618    0.180198     0.007504
AU269   AU        0.324992    0.156103    0.179512     0.007504
AU270   AU        0.329150    0.192156    0.146698     0.007504
AU271   AU        0.361958    0.152752    0.146669     0.007504
AU272   AU        0.361584    0.188864    0.183477     0.007504
AU273   AU        0.400151    0.150638    0.187445     0.007504
AU274   AU        0.401217    0.187868    0.148817     0.007504
AU275   AU        0.433400    0.149321    0.151551     0.007504
AU276   AU        0.435179    0.187127    0.187450     0.007504
AU277   AU        0.469692    0.147507    0.191045     0.007504
AU278   AU        0.473301    0.184434    0.153597     0.007504
AU279   AU        0.509324    0.144454    0.152598     0.007504
AU280   AU        0.506712    0.182535    0.189935     0.007504
AU281   AU        0.541580    0.144433    0.190139     0.007504
AU282   AU        0.544346    0.179111    0.153385     0.007504
AU283   AU        0.579510    0.142426    0.156340     0.007504
AU284   AU        0.579340    0.179384    0.190868     0.007504
AU285   AU        0.616196    0.140039    0.191746     0.007504
AU286   AU        0.618978    0.175660    0.156319     0.007504
AU287   AU        0.652033    0.175375    0.190736     0.007504
AU288   AU        0.149362    0.275223    0.180876     0.007504
AU289   AU        0.181814    0.235926    0.181867     0.007504
AU290   AU        0.183947    0.273881    0.145005     0.007504
AU291   AU        0.216557    0.233585    0.145151     0.007504
AU292   AU        0.221269    0.266536    0.181751     0.007504
AU293   AU        0.257994    0.230319    0.180108     0.007504
AU294   AU        0.258478    0.266780    0.144888     0.007504
AU295   AU        0.293612    0.230995    0.142195     0.007504
AU296   AU        0.292546    0.265667    0.182579     0.007504
AU297   AU        0.327003    0.227844    0.181853     0.007504
AU298   AU        0.329616    0.263753    0.146394     0.007504
AU299   AU        0.368038    0.225801    0.146178     0.007504
AU300   AU        0.364389    0.260066    0.184884     0.007504
AU301   AU        0.398490    0.222864    0.185920     0.007504
AU302   AU        0.405023    0.260796    0.149933     0.007504
AU303   AU        0.436709    0.220325    0.148793     0.007504
AU304   AU        0.439686    0.256813    0.185012     0.007504
AU305   AU        0.473519    0.220276    0.186787     0.007504
AU306   AU        0.475437    0.254909    0.148854     0.007504
AU307   AU        0.510126    0.217597    0.151062     0.007504
AU308   AU        0.511798    0.254602    0.187604     0.007504
AU309   AU        0.545477    0.213009    0.190148     0.007504
AU310   AU        0.548039    0.250581    0.151929     0.007504
AU311   AU        0.582015    0.211264    0.153496     0.007504
AU312   AU        0.587204    0.249911    0.187105     0.007504
AU313   AU        0.618045    0.212581    0.189871     0.007504
AU314   AU        0.622303    0.244669    0.151070     0.007504
AU315   AU        0.655220    0.210159    0.152454     0.007504
AU316   AU        0.656349    0.243828    0.190668     0.007504
AU317   AU        0.690013    0.207849    0.190341     0.007504
AU318   AU        0.694375    0.242903    0.153625     0.007504
AU319   AU        0.727627    0.243650    0.194026     0.007504
AU320   AU        0.111936    0.310996    0.178350     0.007504
AU321   AU        0.148314    0.310371    0.143233     0.007504
AU322   AU        0.151983    0.344698    0.181159     0.007504
AU323   AU        0.186381    0.305957    0.183129     0.007504
AU324   AU        0.189506    0.341396    0.145117     0.007504
AU325   AU        0.224005    0.303759    0.146648     0.007504
AU326   AU        0.226461    0.341315    0.179997     0.007504
AU327   AU        0.258804    0.302426    0.183717     0.007504
AU328   AU        0.262514    0.339125    0.145189     0.007504
AU329   AU        0.296445    0.301065    0.147961     0.007504
AU330   AU        0.295851    0.338920    0.186390     0.007504
AU331   AU        0.331518    0.300054    0.186078     0.007504
AU332   AU        0.331659    0.334570    0.153003     0.007504
AU333   AU        0.367588    0.297462    0.150773     0.007504
AU334   AU        0.369880    0.335550    0.183427     0.007504
AU335   AU        0.405736    0.293873    0.188063     0.007504
AU336   AU        0.405244    0.333452    0.147380     0.007504
AU337   AU        0.441918    0.296661    0.150600     0.007504
AU338   AU        0.441112    0.330548    0.187064     0.007504
AU339   AU        0.475228    0.292780    0.188527     0.007504
AU340   AU        0.478363    0.327528    0.148254     0.007504
AU341   AU        0.512444    0.289475    0.150880     0.007504
AU342   AU        0.514212    0.325020    0.186564     0.007504
AU343   AU        0.549052    0.288414    0.189720     0.007504
AU344   AU        0.552324    0.322865    0.150412     0.007504
AU345   AU        0.587980    0.286638    0.152301     0.007504
AU346   AU        0.588052    0.324829    0.188860     0.007504
AU347   AU        0.621877    0.285885    0.189452     0.007504
AU348   AU        0.624902    0.320963    0.152963     0.007504
AU349   AU        0.657570    0.281783    0.152706     0.007504
AU350   AU        0.659444    0.319873    0.188293     0.007504
AU351   AU        0.695652    0.281747    0.189880     0.007504
AU352   AU        0.697188    0.315864    0.154654     0.007504
AU353   AU        0.732416    0.277781    0.154784     0.007504
AU354   AU        0.734951    0.314590    0.191737     0.007504
AU355   AU        0.765785    0.276494    0.195428     0.007504
AU356   AU        0.080745    0.420027    0.176065     0.007504
AU357   AU        0.116395    0.380454    0.179650     0.007504
AU358   AU        0.120450    0.420869    0.143275     0.007504
AU359   AU        0.152384    0.382802    0.143927     0.007504
AU360   AU        0.157172    0.415194    0.180765     0.007504
AU361   AU        0.193704    0.379774    0.182726     0.007504
AU362   AU        0.193598    0.415123    0.145086     0.007504
AU363   AU        0.228017    0.375319    0.145536     0.007504
AU364   AU        0.229595    0.414982    0.183433     0.007504
AU365   AU        0.262884    0.376371    0.183368     0.007504
AU366   AU        0.264382    0.414589    0.145378     0.007504
AU367   AU        0.298968    0.373433    0.149965     0.007504
AU368   AU        0.298167    0.411943    0.186931     0.007504
AU369   AU        0.334245    0.376663    0.185284     0.007504
AU370   AU        0.337409    0.409946    0.151232     0.007504
AU371   AU        0.371321    0.372358    0.148291     0.007504
AU372   AU        0.374389    0.407225    0.184936     0.007504
AU373   AU        0.408032    0.370236    0.185856     0.007504
AU374   AU        0.411920    0.404845    0.148110     0.007504
AU375   AU        0.446502    0.366027    0.149131     0.007504
AU376   AU        0.446119    0.401379    0.182567     0.007504
AU377   AU        0.481856    0.361221    0.183025     0.007504
AU378   AU        0.484691    0.400909    0.149826     0.007504
AU379   AU        0.518805    0.360901    0.147744     0.007504
AU380   AU        0.515473    0.397607    0.186300     0.007504
AU381   AU        0.551798    0.360380    0.186552     0.007504
AU382   AU        0.550409    0.397090    0.150694     0.007504
AU383   AU        0.588547    0.358611    0.151611     0.007504
AU384   AU        0.594042    0.396621    0.189657     0.007504
AU385   AU        0.623089    0.357977    0.188895     0.007504
AU386   AU        0.628606    0.394279    0.149967     0.007504
AU387   AU        0.658896    0.357562    0.156995     0.007504
AU388   AU        0.661870    0.392605    0.191820     0.007504
AU389   AU        0.697549    0.353462    0.189125     0.007504
AU390   AU        0.699950    0.388875    0.154203     0.007504
AU391   AU        0.736211    0.350089    0.155653     0.007504
AU392   AU        0.737216    0.388399    0.190441     0.007504
AU393   AU        0.769823    0.351128    0.192265     0.007504
AU394   AU        0.772380    0.388337    0.155671     0.007504
AU395   AU        0.809159    0.388946    0.193393     0.007504
AU396   AU        0.087748    0.492107    0.177387     0.007504
AU397   AU        0.122011    0.454371    0.180441     0.007504
AU398   AU        0.125169    0.487703    0.142276     0.007504
AU399   AU        0.160879    0.452134    0.146856     0.007504
AU400   AU        0.158252    0.492023    0.179823     0.007504
AU401   AU        0.195753    0.450945    0.179687     0.007504
AU402   AU        0.196067    0.487564    0.145736     0.007504
AU403   AU        0.231782    0.453235    0.146213     0.007504
AU404   AU        0.233382    0.487795    0.182395     0.007504
AU405   AU        0.267290    0.451396    0.182856     0.007504
AU406   AU        0.271358    0.488450    0.146719     0.007504
AU407   AU        0.303897    0.447727    0.148062     0.007504
AU408   AU        0.306814    0.484963    0.183240     0.007504
AU409   AU        0.340189    0.447884    0.184216     0.007504
AU410   AU        0.342433    0.481199    0.146637     0.007504
AU411   AU        0.375982    0.441518    0.149804     0.007504
AU412   AU        0.377012    0.480924    0.185477     0.007504
AU413   AU        0.409851    0.441014    0.186208     0.007504
AU414   AU        0.411821    0.476676    0.148691     0.007504
AU415   AU        0.446358    0.440902    0.148309     0.007504
AU416   AU        0.448476    0.476357    0.184282     0.007504
AU417   AU        0.484567    0.437141    0.184088     0.007504
AU418   AU        0.488203    0.473160    0.151449     0.007504
AU419   AU        0.519865    0.435753    0.150347     0.007504
AU420   AU        0.524478    0.469463    0.187576     0.007504
AU421   AU        0.556652    0.432654    0.185808     0.007504
AU422   AU        0.559085    0.467746    0.149145     0.007504
AU423   AU        0.592573    0.430234    0.150746     0.007504
AU424   AU        0.593247    0.464584    0.185868     0.007504
AU425   AU        0.627790    0.429932    0.191309     0.007504
AU426   AU        0.631541    0.465132    0.154957     0.007504
AU427   AU        0.664492    0.428185    0.155133     0.007504
AU428   AU        0.667833    0.465741    0.192927     0.007504
AU429   AU        0.701540    0.425313    0.195025     0.007504
AU430   AU        0.703110    0.461296    0.155963     0.007504
AU431   AU        0.737553    0.424818    0.155944     0.007504
AU432   AU        0.739119    0.460641    0.192326     0.007504
AU433   AU        0.775808    0.425120    0.193638     0.007504
AU434   AU        0.780124    0.459874    0.157505     0.007504
AU435   AU        0.814619    0.461569    0.193681     0.007504
AU436   AU        0.122558    0.530695    0.175924     0.007504
AU437   AU        0.162728    0.526020    0.143726     0.007504
AU438   AU        0.165655    0.563179    0.177588     0.007504
AU439   AU        0.198320    0.525475    0.178623     0.007504
AU440   AU        0.201257    0.560414    0.141310     0.007504
AU441   AU        0.235421    0.521155    0.143479     0.007504
AU442   AU        0.235523    0.560616    0.180299     0.007504
AU443   AU        0.269875    0.523030    0.181759     0.007504
AU444   AU        0.271254    0.556617    0.144078     0.007504
AU445   AU        0.309770    0.519691    0.145625     0.007504
AU446   AU        0.306937    0.555424    0.182411     0.007504
AU447   AU        0.341477    0.517714    0.182540     0.007504
AU448   AU        0.345854    0.553623    0.146530     0.007504
AU449   AU        0.377743    0.515905    0.149284     0.007504
AU450   AU        0.379801    0.552770    0.184824     0.007504
AU451   AU        0.413188    0.512420    0.184776     0.007504
AU452   AU        0.419578    0.550179    0.150463     0.007504
AU453   AU        0.449605    0.507448    0.148785     0.007504
AU454   AU        0.452773    0.547536    0.185854     0.007504
AU455   AU        0.485650    0.509309    0.187763     0.007504
AU456   AU        0.489184    0.546865    0.152573     0.007504
AU457   AU        0.525643    0.503979    0.153444     0.007504
AU458   AU        0.522676    0.541185    0.187217     0.007504
AU459   AU        0.561323    0.503662    0.187859     0.007504
AU460   AU        0.562453    0.541287    0.152641     0.007504
AU461   AU        0.598965    0.502141    0.153071     0.007504
AU462   AU        0.599054    0.539238    0.187776     0.007504
AU463   AU        0.631768    0.503829    0.190398     0.007504
AU464   AU        0.636863    0.537899    0.151343     0.007504
AU465   AU        0.668635    0.499422    0.153325     0.007504
AU466   AU        0.671120    0.533935    0.189795     0.007504
AU467   AU        0.705496    0.501036    0.190813     0.007504
AU468   AU        0.708805    0.537002    0.153314     0.007504
AU469   AU        0.741355    0.499726    0.154329     0.007504
AU470   AU        0.744115    0.536262    0.189796     0.007504
AU471   AU        0.776537    0.495005    0.192763     0.007504
AU472   AU        0.127516    0.599918    0.178978     0.007504
AU473   AU        0.166813    0.597760    0.142239     0.007504
AU474   AU        0.165674    0.636514    0.178221     0.007504
AU475   AU        0.204460    0.597896    0.179101     0.007504
AU476   AU        0.202463    0.631860    0.144715     0.007504
AU477   AU        0.236371    0.596414    0.143152     0.007504
AU478   AU        0.240396    0.631478    0.180429     0.007504
AU479   AU        0.274191    0.592376    0.177398     0.007504
AU480   AU        0.276073    0.629333    0.144658     0.007504
AU481   AU        0.308624    0.592173    0.141654     0.007504
AU482   AU        0.308364    0.625325    0.182041     0.007504
AU483   AU        0.344344    0.589628    0.183291     0.007504
AU484   AU        0.351030    0.625448    0.147586     0.007504
AU485   AU        0.383388    0.586323    0.144514     0.007504
AU486   AU        0.383909    0.623508    0.183104     0.007504
AU487   AU        0.416097    0.585449    0.185097     0.007504
AU488   AU        0.421303    0.622949    0.150784     0.007504
AU489   AU        0.454859    0.585197    0.152708     0.007504
AU490   AU        0.457788    0.620189    0.185702     0.007504
AU491   AU        0.492525    0.583638    0.187761     0.007504
AU492   AU        0.493676    0.620257    0.151661     0.007504
AU493   AU        0.528660    0.581144    0.153078     0.007504
AU494   AU        0.528955    0.619333    0.189473     0.007504
AU495   AU        0.566068    0.580298    0.189893     0.007504
AU496   AU        0.565771    0.617169    0.154539     0.007504
AU497   AU        0.600368    0.576584    0.152369     0.007504
AU498   AU        0.604369    0.613599    0.193467     0.007504
AU499   AU        0.636579    0.573813    0.188046     0.007504
AU500   AU        0.637681    0.612606    0.156064     0.007504
AU501   AU        0.673940    0.572176    0.155712     0.007504
AU502   AU        0.672321    0.608203    0.191750     0.007504
AU503   AU        0.708040    0.573415    0.191380     0.007504
AU504   AU        0.708072    0.608704    0.154163     0.007504
AU505   AU        0.745266    0.572265    0.154296     0.007504
AU506   AU        0.744459    0.608438    0.192916     0.007504
AU507   AU        0.782565    0.570852    0.194861     0.007504
AU508   AU        0.201488    0.672326    0.179578     0.007504
AU509   AU        0.241794    0.667103    0.143277     0.007504
AU510   AU        0.243631    0.704865    0.181252     0.007504
AU511   AU        0.278980    0.668022    0.185224     0.007504
AU512   AU        0.279763    0.701770    0.143694     0.007504
AU513   AU        0.314962    0.662492    0.148192     0.007504
AU514   AU        0.314404    0.702641    0.182496     0.007504
AU515   AU        0.350110    0.664188    0.183751     0.007504
AU516   AU        0.353532    0.697054    0.147262     0.007504
AU517   AU        0.388531    0.661474    0.148789     0.007504
AU518   AU        0.386918    0.697618    0.185009     0.007504
AU519   AU        0.423183    0.658258    0.185998     0.007504
AU520   AU        0.425667    0.696362    0.149638     0.007504
AU521   AU        0.458674    0.660208    0.149353     0.007504
AU522   AU        0.458866    0.695506    0.188914     0.007504
AU523   AU        0.493441    0.656654    0.191207     0.007504
AU524   AU        0.496193    0.693971    0.152093     0.007504
AU525   AU        0.532240    0.653924    0.153348     0.007504
AU526   AU        0.531236    0.690427    0.188735     0.007504
AU527   AU        0.567713    0.653949    0.191129     0.007504
AU528   AU        0.570109    0.689979    0.154649     0.007504
AU529   AU        0.604163    0.650005    0.154570     0.007504
AU530   AU        0.605006    0.687867    0.189302     0.007504
AU531   AU        0.637681    0.649609    0.193898     0.007504
AU532   AU        0.642765    0.682863    0.157166     0.007504
AU533   AU        0.675655    0.646308    0.155347     0.007504
AU534   AU        0.677171    0.682497    0.192918     0.007504
AU535   AU        0.711610    0.645059    0.193721     0.007504
AU536   AU        0.280924    0.742142    0.183081     0.007504
AU537   AU        0.318599    0.738636    0.145240     0.007504
AU538   AU        0.321425    0.775756    0.183604     0.007504
AU539   AU        0.353756    0.735325    0.182513     0.007504
AU540   AU        0.391271    0.733553    0.149652     0.007504
AU541   AU        0.390838    0.770906    0.183824     0.007504
AU542   AU        0.425760    0.734051    0.185675     0.007504
AU543   AU        0.429686    0.772056    0.146698     0.007504
AU544   AU        0.461108    0.732940    0.148595     0.007504
AU545   AU        0.464179    0.765463    0.187965     0.007504
AU546   AU        0.498284    0.730841    0.188325     0.007504
AU547   AU        0.499969    0.764333    0.151222     0.007504
AU548   AU        0.533075    0.726006    0.153529     0.007504
AU549   AU        0.535656    0.763655    0.189147     0.007504
AU550   AU        0.570518    0.729811    0.188815     0.007504
AU551   AU        0.609797    0.725710    0.154680     0.007504
AU552   AU        0.606900    0.762824    0.190937     0.007504
AU553   AU        0.640452    0.722412    0.192977     0.007504
AU554   AU        0.432612    0.803732    0.186481     0.007504
AU555   AU        0.499506    0.799971    0.188132     0.007504
AU556   AU        0.353711    0.042116    0.258736     0.007504
AU557   AU        0.427666    0.037434    0.257429     0.007504
AU558   AU        0.500870    0.036507    0.260034     0.007504
AU559   AU        0.211857    0.124278    0.253987     0.007504
AU560   AU        0.242813    0.083944    0.253424     0.007504
AU561   AU        0.251500    0.122677    0.217819     0.007504
AU562   AU        0.284133    0.118832    0.253478     0.007504
AU563   AU        0.315320    0.081237    0.255395     0.007504
AU564   AU        0.323079    0.118136    0.214935     0.007504
AU565   AU        0.353865    0.077086    0.220207     0.007504
AU566   AU        0.355211    0.114823    0.257400     0.007504
AU567   AU        0.389931    0.076177    0.259897     0.007504
AU568   AU        0.392508    0.111607    0.222140     0.007504
AU569   AU        0.429111    0.076446    0.224780     0.007504
AU570   AU        0.429235    0.112152    0.258527     0.007504
AU571   AU        0.464470    0.073504    0.259962     0.007504
AU572   AU        0.469204    0.107633    0.224291     0.007504
AU573   AU        0.503394    0.070016    0.222235     0.007504
AU574   AU        0.503023    0.105946    0.259671     0.007504
AU575   AU        0.538848    0.066978    0.261471     0.007504
AU576   AU        0.538890    0.107456    0.227502     0.007504
AU577   AU        0.574525    0.103358    0.263524     0.007504
AU578   AU        0.611889    0.066065    0.261933     0.007504
AU579   AU        0.612560    0.104908    0.229235     0.007504
AU580   AU        0.650049    0.101976    0.268050     0.007504
AU581   AU        0.143494    0.200029    0.250108     0.007504
AU582   AU        0.175620    0.159831    0.250091     0.007504
AU583   AU        0.180940    0.198450    0.217841     0.007504
AU584   AU        0.214752    0.160846    0.217935     0.007504
AU585   AU        0.217618    0.197610    0.254054     0.007504
AU586   AU        0.251024    0.159382    0.250599     0.007504
AU587   AU        0.257013    0.194889    0.217102     0.007504
AU588   AU        0.288704    0.155092    0.217441     0.007504
AU589   AU        0.289517    0.192709    0.256651     0.007504
AU590   AU        0.323879    0.153863    0.258285     0.007504
AU591   AU        0.324544    0.189340    0.219593     0.007504
AU592   AU        0.357097    0.154202    0.219962     0.007504
AU593   AU        0.356979    0.190061    0.258711     0.007504
AU594   AU        0.394237    0.149171    0.256988     0.007504
AU595   AU        0.399884    0.187390    0.223716     0.007504
AU596   AU        0.432107    0.149747    0.223644     0.007504
AU597   AU        0.431420    0.185467    0.260573     0.007504
AU598   AU        0.467719    0.149275    0.260012     0.007504
AU599   AU        0.470992    0.185196    0.225802     0.007504
AU600   AU        0.505624    0.144401    0.226228     0.007504
AU601   AU        0.506438    0.180294    0.261724     0.007504
AU602   AU        0.541646    0.142312    0.261355     0.007504
AU603   AU        0.542959    0.180015    0.225562     0.007504
AU604   AU        0.577844    0.141794    0.225954     0.007504
AU605   AU        0.577843    0.179213    0.263142     0.007504
AU606   AU        0.612678    0.139887    0.265007     0.007504
AU607   AU        0.616975    0.175541    0.226825     0.007504
AU608   AU        0.648688    0.137151    0.229433     0.007504
AU609   AU        0.650034    0.173684    0.263264     0.007504
AU610   AU        0.686587    0.135537    0.263473     0.007504
AU611   AU        0.687833    0.173430    0.228244     0.007504
AU612   AU        0.725912    0.167377    0.263256     0.007504
AU613   AU        0.073809    0.273729    0.246764     0.007504
AU614   AU        0.110205    0.236354    0.248796     0.007504
AU615   AU        0.110728    0.276741    0.214743     0.007504
AU616   AU        0.143216    0.236383    0.213479     0.007504
AU617   AU        0.147956    0.272205    0.252566     0.007504
AU618   AU        0.181764    0.234909    0.254329     0.007504
AU619   AU        0.182802    0.269330    0.217437     0.007504
AU620   AU        0.218874    0.231404    0.218293     0.007504
AU621   AU        0.218215    0.269290    0.255832     0.007504
AU622   AU        0.254338    0.231868    0.255349     0.007504
AU623   AU        0.255769    0.267023    0.218368     0.007504
AU624   AU        0.291243    0.230814    0.217714     0.007504
AU625   AU        0.291037    0.265332    0.255023     0.007504
AU626   AU        0.325486    0.227209    0.256063     0.007504
AU627   AU        0.329777    0.263294    0.219738     0.007504
AU628   AU        0.364705    0.223605    0.222635     0.007504
AU629   AU        0.364306    0.261533    0.256883     0.007504
AU630   AU        0.397199    0.222595    0.257952     0.007504
AU631   AU        0.403995    0.258402    0.221506     0.007504
AU632   AU        0.437973    0.218721    0.222428     0.007504
AU633   AU        0.436173    0.255356    0.261335     0.007504
AU634   AU        0.474030    0.220897    0.258672     0.007504
AU635   AU        0.474815    0.255811    0.222022     0.007504
AU636   AU        0.510710    0.219347    0.224137     0.007504
AU637   AU        0.511770    0.254308    0.258347     0.007504
AU638   AU        0.542972    0.217065    0.259994     0.007504
AU639   AU        0.550522    0.253135    0.225966     0.007504
AU640   AU        0.581463    0.213370    0.225193     0.007504
AU641   AU        0.583546    0.251580    0.263220     0.007504
AU642   AU        0.621511    0.214266    0.263793     0.007504
AU643   AU        0.619925    0.249758    0.225923     0.007504
AU644   AU        0.653296    0.209782    0.225653     0.007504
AU645   AU        0.655081    0.245473    0.260643     0.007504
AU646   AU        0.690466    0.209293    0.264074     0.007504
AU647   AU        0.688822    0.244956    0.227117     0.007504
AU648   AU        0.724568    0.206854    0.227577     0.007504
AU649   AU        0.725822    0.244199    0.262100     0.007504
AU650   AU        0.760592    0.205204    0.265332     0.007504
AU651   AU        0.763395    0.237451    0.230036     0.007504
AU652   AU        0.801764    0.237823    0.266192     0.007504
AU653   AU        0.074769    0.347008    0.249459     0.007504
AU654   AU        0.110537    0.309280    0.253056     0.007504
AU655   AU        0.114233    0.345221    0.215616     0.007504
AU656   AU        0.150565    0.308306    0.221156     0.007504
AU657   AU        0.147433    0.345822    0.256008     0.007504
AU658   AU        0.183741    0.305574    0.255521     0.007504
AU659   AU        0.187696    0.342728    0.218610     0.007504
AU660   AU        0.221498    0.304407    0.218541     0.007504
AU661   AU        0.221647    0.340982    0.255908     0.007504
AU662   AU        0.257421    0.301936    0.252939     0.007504
AU663   AU        0.259646    0.340115    0.219821     0.007504
AU664   AU        0.297810    0.302956    0.221023     0.007504
AU665   AU        0.296292    0.337689    0.257701     0.007504
AU666   AU        0.332044    0.301579    0.256612     0.007504
AU667   AU        0.332977    0.338475    0.221468     0.007504
AU668   AU        0.368041    0.295829    0.222038     0.007504
AU669   AU        0.367491    0.332906    0.257840     0.007504
AU670   AU        0.401498    0.296951    0.257947     0.007504
AU671   AU        0.405103    0.332667    0.220061     0.007504
AU672   AU        0.439443    0.290694    0.223473     0.007504
AU673   AU        0.439638    0.329478    0.258706     0.007504
AU674   AU        0.474699    0.290280    0.258364     0.007504
AU675   AU        0.475560    0.327104    0.224198     0.007504
AU676   AU        0.513934    0.291818    0.224892     0.007504
AU677   AU        0.515842    0.325400    0.261030     0.007504
AU678   AU        0.550135    0.289119    0.262092     0.007504
AU679   AU        0.553792    0.322218    0.223089     0.007504
AU680   AU        0.586862    0.287205    0.222235     0.007504
AU681   AU        0.588304    0.323085    0.262697     0.007504
AU682   AU        0.622397    0.284481    0.262750     0.007504
AU683   AU        0.624522    0.322425    0.226551     0.007504
AU684   AU        0.658196    0.284299    0.225007     0.007504
AU685   AU        0.660894    0.318566    0.262706     0.007504
AU686   AU        0.692572    0.280772    0.260880     0.007504
AU687   AU        0.694973    0.320865    0.226363     0.007504
AU688   AU        0.727085    0.279815    0.226657     0.007504
AU689   AU        0.734874    0.313886    0.263144     0.007504
AU690   AU        0.767651    0.277831    0.262257     0.007504
AU691   AU        0.771819    0.315918    0.228408     0.007504
AU692   AU        0.806470    0.313182    0.265019     0.007504
AU693   AU        0.042644    0.386246    0.248777     0.007504
AU694   AU        0.078380    0.384586    0.212925     0.007504
AU695   AU        0.080915    0.421091    0.249778     0.007504
AU696   AU        0.114232    0.382447    0.251792     0.007504
AU697   AU        0.118248    0.418354    0.214424     0.007504
AU698   AU        0.151410    0.379185    0.215823     0.007504
AU699   AU        0.152824    0.416367    0.248484     0.007504
AU700   AU        0.187322    0.381615    0.252739     0.007504
AU701   AU        0.191175    0.418030    0.218954     0.007504
AU702   AU        0.223798    0.375866    0.220215     0.007504
AU703   AU        0.225918    0.415001    0.255142     0.007504
AU704   AU        0.260029    0.372438    0.255495     0.007504
AU705   AU        0.262117    0.411452    0.219473     0.007504
AU706   AU        0.297372    0.372750    0.223487     0.007504
AU707   AU        0.297912    0.410312    0.257541     0.007504
AU708   AU        0.333291    0.370463    0.259209     0.007504
AU709   AU        0.337867    0.410397    0.221351     0.007504
AU710   AU        0.371416    0.369972    0.221167     0.007504
AU711   AU        0.370647    0.408939    0.257633     0.007504
AU712   AU        0.405187    0.366752    0.256998     0.007504
AU713   AU        0.409167    0.404812    0.222428     0.007504
AU714   AU        0.442653    0.367208    0.222100     0.007504
AU715   AU        0.446077    0.401464    0.259054     0.007504
AU716   AU        0.479648    0.363004    0.256084     0.007504
AU717   AU        0.479797    0.396763    0.219545     0.007504
AU718   AU        0.515955    0.363255    0.223948     0.007504
AU719   AU        0.518820    0.397467    0.260102     0.007504
AU720   AU        0.553017    0.362156    0.260377     0.007504
AU721   AU        0.552833    0.399770    0.222584     0.007504
AU722   AU        0.586905    0.363811    0.225323     0.007504
AU723   AU        0.590564    0.395044    0.264880     0.007504
AU724   AU        0.625734    0.357850    0.262633     0.007504
AU725   AU        0.626227    0.394402    0.229270     0.007504
AU726   AU        0.661888    0.357564    0.225410     0.007504
AU727   AU        0.663417    0.394199    0.263786     0.007504
AU728   AU        0.698552    0.353617    0.265182     0.007504
AU729   AU        0.699757    0.390416    0.228040     0.007504
AU730   AU        0.733675    0.351378    0.228085     0.007504
AU731   AU        0.734458    0.389126    0.264405     0.007504
AU732   AU        0.770603    0.352256    0.263023     0.007504
AU733   AU        0.772410    0.388571    0.228384     0.007504
AU734   AU        0.808984    0.352670    0.228885     0.007504
AU735   AU        0.809519    0.385791    0.264630     0.007504
AU736   AU        0.846741    0.348352    0.264214     0.007504
AU737   AU        0.046603    0.457537    0.248616     0.007504
AU738   AU        0.083654    0.456018    0.212131     0.007504
AU739   AU        0.082729    0.493102    0.246086     0.007504
AU740   AU        0.119337    0.456145    0.246874     0.007504
AU741   AU        0.122157    0.494971    0.213414     0.007504
AU742   AU        0.158784    0.455105    0.213806     0.007504
AU743   AU        0.159816    0.489843    0.250762     0.007504
AU744   AU        0.192768    0.455643    0.253161     0.007504
AU745   AU        0.195944    0.490642    0.214625     0.007504
AU746   AU        0.229901    0.451063    0.218392     0.007504
AU747   AU        0.231705    0.487726    0.253546     0.007504
AU748   AU        0.264493    0.450412    0.256439     0.007504
AU749   AU        0.268021    0.486061    0.219176     0.007504
AU750   AU        0.300823    0.447621    0.221988     0.007504
AU751   AU        0.303726    0.484935    0.257146     0.007504
AU752   AU        0.332779    0.445889    0.258853     0.007504
AU753   AU        0.338533    0.481847    0.222762     0.007504
AU754   AU        0.374238    0.443648    0.220745     0.007504
AU755   AU        0.374172    0.479126    0.259265     0.007504
AU756   AU        0.408800    0.439833    0.257424     0.007504
AU757   AU        0.414261    0.477181    0.222717     0.007504
AU758   AU        0.446176    0.435624    0.222062     0.007504
AU759   AU        0.448941    0.476122    0.257935     0.007504
AU760   AU        0.481892    0.439100    0.257559     0.007504
AU761   AU        0.483618    0.471968    0.220817     0.007504
AU762   AU        0.518890    0.435558    0.221205     0.007504
AU763   AU        0.520098    0.470674    0.259863     0.007504
AU764   AU        0.554934    0.433573    0.262086     0.007504
AU765   AU        0.558134    0.468202    0.225131     0.007504
AU766   AU        0.591215    0.429096    0.227842     0.007504
AU767   AU        0.591287    0.466290    0.264251     0.007504
AU768   AU        0.628893    0.430714    0.264355     0.007504
AU769   AU        0.629887    0.466655    0.226696     0.007504
AU770   AU        0.662189    0.428645    0.227615     0.007504
AU771   AU        0.667772    0.463573    0.262290     0.007504
AU772   AU        0.700269    0.426116    0.262773     0.007504
AU773   AU        0.703642    0.465405    0.229257     0.007504
AU774   AU        0.737246    0.427106    0.227718     0.007504
AU775   AU        0.740141    0.460854    0.263888     0.007504
AU776   AU        0.773692    0.424347    0.264527     0.007504
AU777   AU        0.775542    0.461396    0.231063     0.007504
AU778   AU        0.812673    0.427293    0.228672     0.007504
AU779   AU        0.811025    0.459772    0.269138     0.007504
AU780   AU        0.848195    0.425901    0.269564     0.007504
AU781   AU        0.048283    0.532268    0.245997     0.007504
AU782   AU        0.086867    0.531099    0.212384     0.007504
AU783   AU        0.088472    0.570169    0.243330     0.007504
AU784   AU        0.119202    0.528935    0.249716     0.007504
AU785   AU        0.126810    0.565996    0.213881     0.007504
AU786   AU        0.160662    0.526311    0.213754     0.007504
AU787   AU        0.164037    0.563950    0.251801     0.007504
AU788   AU        0.197241    0.525442    0.252860     0.007504
AU789   AU        0.200433    0.565691    0.217289     0.007504
AU790   AU        0.232120    0.525455    0.216576     0.007504
AU791   AU        0.233000    0.563701    0.254985     0.007504
AU792   AU        0.269371    0.521396    0.255135     0.007504
AU793   AU        0.271331    0.561589    0.217924     0.007504
AU794   AU        0.308165    0.523107    0.219242     0.007504
AU795   AU        0.308411    0.557548    0.255906     0.007504
AU796   AU        0.340873    0.518946    0.258972     0.007504
AU797   AU        0.344684    0.555339    0.221417     0.007504
AU798   AU        0.375884    0.515353    0.220210     0.007504
AU799   AU        0.380023    0.550931    0.256431     0.007504
AU800   AU        0.411759    0.513302    0.257208     0.007504
AU801   AU        0.415243    0.551161    0.221377     0.007504
AU802   AU        0.448800    0.512173    0.222676     0.007504
AU803   AU        0.451018    0.544798    0.260704     0.007504
AU804   AU        0.486484    0.508341    0.258656     0.007504
AU805   AU        0.488577    0.543528    0.224988     0.007504
AU806   AU        0.521898    0.506774    0.222376     0.007504
AU807   AU        0.522945    0.545469    0.261014     0.007504
AU808   AU        0.556850    0.507314    0.261125     0.007504
AU809   AU        0.560064    0.542688    0.223643     0.007504
AU810   AU        0.594814    0.503215    0.225191     0.007504
AU811   AU        0.596028    0.542414    0.259613     0.007504
AU812   AU        0.630916    0.504360    0.262713     0.007504
AU813   AU        0.634343    0.539410    0.227459     0.007504
AU814   AU        0.668481    0.503106    0.226477     0.007504
AU815   AU        0.670622    0.536400    0.265405     0.007504
AU816   AU        0.708392    0.501423    0.263632     0.007504
AU817   AU        0.707206    0.535887    0.229121     0.007504
AU818   AU        0.742143    0.498075    0.227527     0.007504
AU819   AU        0.741266    0.538596    0.264445     0.007504
AU820   AU        0.776687    0.498601    0.266522     0.007504
AU821   AU        0.778972    0.531586    0.226012     0.007504
AU822   AU        0.814401    0.495938    0.231892     0.007504
AU823   AU        0.813744    0.530625    0.271244     0.007504
AU824   AU        0.853024    0.493330    0.267211     0.007504
AU825   AU        0.090764    0.642054    0.249191     0.007504
AU826   AU        0.126549    0.600975    0.249614     0.007504
AU827   AU        0.131833    0.637888    0.214797     0.007504
AU828   AU        0.164325    0.599447    0.213995     0.007504
AU829   AU        0.164824    0.638156    0.251799     0.007504
AU830   AU        0.201226    0.604037    0.254327     0.007504
AU831   AU        0.200261    0.635279    0.216466     0.007504
AU832   AU        0.236770    0.600232    0.219461     0.007504
AU833   AU        0.239562    0.635728    0.253962     0.007504
AU834   AU        0.274496    0.595405    0.254431     0.007504
AU835   AU        0.279146    0.631892    0.219088     0.007504
AU836   AU        0.310713    0.593208    0.219091     0.007504
AU837   AU        0.312897    0.631687    0.254753     0.007504
AU838   AU        0.345389    0.591446    0.257119     0.007504
AU839   AU        0.346997    0.627271    0.220149     0.007504
AU840   AU        0.380393    0.588907    0.220864     0.007504
AU841   AU        0.385711    0.625805    0.255742     0.007504
AU842   AU        0.418229    0.583018    0.259356     0.007504
AU843   AU        0.419186    0.620986    0.217898     0.007504
AU844   AU        0.454080    0.583590    0.218943     0.007504
AU845   AU        0.453161    0.619548    0.255466     0.007504
AU846   AU        0.489508    0.581654    0.260004     0.007504
AU847   AU        0.493413    0.618649    0.223907     0.007504
AU848   AU        0.527050    0.579508    0.225081     0.007504
AU849   AU        0.529931    0.618481    0.260686     0.007504
AU850   AU        0.564798    0.579778    0.262209     0.007504
AU851   AU        0.566122    0.616879    0.225530     0.007504
AU852   AU        0.600032    0.577458    0.225652     0.007504
AU853   AU        0.601193    0.613357    0.263021     0.007504
AU854   AU        0.636718    0.575266    0.264836     0.007504
AU855   AU        0.637316    0.609501    0.229244     0.007504
AU856   AU        0.671013    0.572540    0.226024     0.007504
AU857   AU        0.672940    0.610298    0.266690     0.007504
AU858   AU        0.706189    0.575322    0.264734     0.007504
AU859   AU        0.708460    0.610176    0.229316     0.007504
AU860   AU        0.742434    0.571678    0.227938     0.007504
AU861   AU        0.747131    0.608605    0.264928     0.007504
AU862   AU        0.780278    0.570745    0.263937     0.007504
AU863   AU        0.782047    0.606903    0.229998     0.007504
AU864   AU        0.816388    0.607577    0.268961     0.007504
AU865   AU        0.132384    0.676678    0.250760     0.007504
AU866   AU        0.169008    0.674108    0.217035     0.007504
AU867   AU        0.168706    0.712916    0.251727     0.007504
AU868   AU        0.204635    0.669577    0.252435     0.007504
AU869   AU        0.207710    0.707048    0.220320     0.007504
AU870   AU        0.242390    0.670849    0.217824     0.007504
AU871   AU        0.245516    0.707453    0.251893     0.007504
AU872   AU        0.277712    0.670727    0.254531     0.007504
AU873   AU        0.280826    0.705033    0.220465     0.007504
AU874   AU        0.315404    0.667034    0.219584     0.007504
AU875   AU        0.317082    0.702599    0.257045     0.007504
AU876   AU        0.351384    0.665057    0.258444     0.007504
AU877   AU        0.352146    0.701871    0.219697     0.007504
AU878   AU        0.384473    0.659365    0.219040     0.007504
AU879   AU        0.386495    0.698640    0.257238     0.007504
AU880   AU        0.420435    0.659665    0.258038     0.007504
AU881   AU        0.420430    0.693197    0.219775     0.007504
AU882   AU        0.458765    0.656692    0.223412     0.007504
AU883   AU        0.457376    0.695614    0.259301     0.007504
AU884   AU        0.492274    0.655539    0.259475     0.007504
AU885   AU        0.496004    0.691891    0.226362     0.007504
AU886   AU        0.531065    0.655522    0.225668     0.007504
AU887   AU        0.530351    0.691895    0.263441     0.007504
AU888   AU        0.565190    0.652312    0.262435     0.007504
AU889   AU        0.570214    0.690901    0.225278     0.007504
AU890   AU        0.603635    0.650417    0.229094     0.007504
AU891   AU        0.602068    0.692043    0.264657     0.007504
AU892   AU        0.638184    0.647733    0.264443     0.007504
AU893   AU        0.640701    0.687005    0.227675     0.007504
AU894   AU        0.673577    0.647513    0.230927     0.007504
AU895   AU        0.676512    0.684911    0.264173     0.007504
AU896   AU        0.710058    0.645998    0.264614     0.007504
AU897   AU        0.714330    0.681563    0.228565     0.007504
AU898   AU        0.748934    0.643727    0.228205     0.007504
AU899   AU        0.748606    0.678538    0.267505     0.007504
AU900   AU        0.781541    0.643639    0.267587     0.007504
AU901   AU        0.209621    0.746116    0.252620     0.007504
AU902   AU        0.242978    0.743415    0.216892     0.007504
AU903   AU        0.248754    0.777926    0.256284     0.007504
AU904   AU        0.282743    0.740310    0.258145     0.007504
AU905   AU        0.285867    0.776580    0.219981     0.007504
AU906   AU        0.319782    0.740236    0.218416     0.007504
AU907   AU        0.319470    0.776291    0.254892     0.007504
AU908   AU        0.354473    0.736445    0.258556     0.007504
AU909   AU        0.357312    0.775234    0.221589     0.007504
AU910   AU        0.389164    0.735747    0.219395     0.007504
AU911   AU        0.392004    0.772665    0.257858     0.007504
AU912   AU        0.421625    0.732837    0.258936     0.007504
AU913   AU        0.426357    0.769591    0.223043     0.007504
AU914   AU        0.459741    0.730508    0.224045     0.007504
AU915   AU        0.460999    0.768474    0.257822     0.007504
AU916   AU        0.496858    0.731368    0.262932     0.007504
AU917   AU        0.497870    0.764864    0.224895     0.007504
AU918   AU        0.535563    0.726724    0.223443     0.007504
AU919   AU        0.534728    0.762705    0.261451     0.007504
AU920   AU        0.569389    0.727466    0.263509     0.007504
AU921   AU        0.570747    0.763382    0.224731     0.007504
AU922   AU        0.607038    0.727384    0.228891     0.007504
AU923   AU        0.606377    0.762784    0.263108     0.007504
AU924   AU        0.643113    0.723916    0.263407     0.007504
AU925   AU        0.645299    0.761443    0.228918     0.007504
AU926   AU        0.677687    0.721439    0.226796     0.007504
AU927   AU        0.678662    0.759410    0.267269     0.007504
AU928   AU        0.716391    0.720705    0.265037     0.007504
AU929   AU        0.283779    0.812976    0.251269     0.007504
AU930   AU        0.357856    0.809377    0.258107     0.007504
AU931   AU        0.393324    0.811370    0.217160     0.007504
AU932   AU        0.393516    0.844311    0.259262     0.007504
AU933   AU        0.428025    0.806579    0.258088     0.007504
AU934   AU        0.466152    0.801608    0.224271     0.007504
AU935   AU        0.467543    0.840104    0.258444     0.007504
AU936   AU        0.499898    0.800410    0.265334     0.007504
AU937   AU        0.534103    0.798542    0.227684     0.007504
AU938   AU        0.536107    0.836250    0.261779     0.007504
AU939   AU        0.571508    0.800340    0.264636     0.007504
AU940   AU        0.642856    0.798563    0.271381     0.007504
AU941   AU        0.277704    0.047098    0.327954     0.007504
AU942   AU        0.313125    0.046132    0.290232     0.007504
AU943   AU        0.351704    0.040464    0.328979     0.007504
AU944   AU        0.390623    0.037615    0.292824     0.007504
AU945   AU        0.424815    0.039849    0.330266     0.007504
AU946   AU        0.461210    0.038366    0.297614     0.007504
AU947   AU        0.497865    0.032936    0.332057     0.007504
AU948   AU        0.538304    0.032438    0.298024     0.007504
AU949   AU        0.574997    0.031169    0.338129     0.007504
AU950   AU        0.177802    0.124948    0.287981     0.007504
AU951   AU        0.211325    0.121295    0.325244     0.007504
AU952   AU        0.246147    0.083938    0.328241     0.007504
AU953   AU        0.246156    0.123162    0.289317     0.007504
AU954   AU        0.279852    0.081958    0.291101     0.007504
AU955   AU        0.282916    0.117871    0.326954     0.007504
AU956   AU        0.318947    0.078227    0.328022     0.007504
AU957   AU        0.318741    0.117006    0.291753     0.007504
AU958   AU        0.353037    0.078287    0.293105     0.007504
AU959   AU        0.358397    0.115493    0.331171     0.007504
AU960   AU        0.389700    0.076752    0.328706     0.007504
AU961   AU        0.391037    0.113389    0.295310     0.007504
AU962   AU        0.426338    0.077929    0.295114     0.007504
AU963   AU        0.429240    0.111961    0.328335     0.007504
AU964   AU        0.464388    0.073443    0.333725     0.007504
AU965   AU        0.463801    0.108404    0.295295     0.007504
AU966   AU        0.499733    0.069901    0.297676     0.007504
AU967   AU        0.499158    0.109337    0.330133     0.007504
AU968   AU        0.538125    0.069853    0.332161     0.007504
AU969   AU        0.537222    0.104293    0.297681     0.007504
AU970   AU        0.578348    0.065903    0.297686     0.007504
AU971   AU        0.575290    0.105798    0.333963     0.007504
AU972   AU        0.609023    0.067448    0.335973     0.007504
AU973   AU        0.612837    0.103080    0.301401     0.007504
AU974   AU        0.653082    0.102084    0.336135     0.007504
AU975   AU        0.690702    0.096594    0.302280     0.007504
AU976   AU        0.106583    0.201063    0.286076     0.007504
AU977   AU        0.140756    0.162357    0.286753     0.007504
AU978   AU        0.142788    0.200218    0.324043     0.007504
AU979   AU        0.176842    0.162023    0.323423     0.007504
AU980   AU        0.178003    0.197036    0.286709     0.007504
AU981   AU        0.214019    0.163044    0.286437     0.007504
AU982   AU        0.213575    0.193486    0.324400     0.007504
AU983   AU        0.249142    0.157007    0.325689     0.007504
AU984   AU        0.253365    0.194743    0.289168     0.007504
AU985   AU        0.287992    0.155729    0.294010     0.007504
AU986   AU        0.288385    0.191939    0.327095     0.007504
AU987   AU        0.322636    0.153506    0.325949     0.007504
AU988   AU        0.324545    0.191713    0.294028     0.007504
AU989   AU        0.359723    0.151488    0.292625     0.007504
AU990   AU        0.362077    0.188624    0.331704     0.007504
AU991   AU        0.393836    0.150125    0.331206     0.007504
AU992   AU        0.397933    0.188624    0.298152     0.007504
AU993   AU        0.431068    0.146760    0.293570     0.007504
AU994   AU        0.433203    0.185852    0.331831     0.007504
AU995   AU        0.467564    0.148593    0.330978     0.007504
AU996   AU        0.470419    0.182953    0.294888     0.007504
AU997   AU        0.504848    0.146701    0.298571     0.007504
AU998   AU        0.505630    0.180534    0.334654     0.007504
AU999   AU        0.541858    0.141812    0.332114     0.007504
AU1000   AU        0.540447    0.178995    0.297982     0.007504
AU1001   AU        0.576232    0.144079    0.298282     0.007504
AU1002   AU        0.580779    0.176585    0.335806     0.007504
AU1003   AU        0.617106    0.140797    0.336985     0.007504
AU1004   AU        0.615791    0.176441    0.300523     0.007504
AU1005   AU        0.651562    0.140538    0.298143     0.007504
AU1006   AU        0.652496    0.174989    0.338472     0.007504
AU1007   AU        0.688850    0.138431    0.338325     0.007504
AU1008   AU        0.687946    0.173152    0.299242     0.007504
AU1009   AU        0.722442    0.134565    0.300665     0.007504
AU1010   AU        0.725667    0.173217    0.337997     0.007504
AU1011   AU        0.762771    0.172198    0.303880     0.007504
AU1012   AU        0.070711    0.271242    0.323224     0.007504
AU1013   AU        0.106672    0.234877    0.326153     0.007504
AU1014   AU        0.109928    0.269565    0.287765     0.007504
AU1015   AU        0.143939    0.235502    0.288656     0.007504
AU1016   AU        0.145107    0.269359    0.325872     0.007504
AU1017   AU        0.178644    0.233550    0.326470     0.007504
AU1018   AU        0.182589    0.271432    0.289939     0.007504
AU1019   AU        0.214437    0.231686    0.292596     0.007504
AU1020   AU        0.218849    0.270903    0.327045     0.007504
AU1021   AU        0.250055    0.229921    0.326889     0.007504
AU1022   AU        0.252181    0.264037    0.291186     0.007504
AU1023   AU        0.287910    0.230048    0.292780     0.007504
AU1024   AU        0.289666    0.267077    0.326508     0.007504
AU1025   AU        0.325280    0.226151    0.329111     0.007504
AU1026   AU        0.327228    0.262513    0.292871     0.007504
AU1027   AU        0.363798    0.225134    0.294319     0.007504
AU1028   AU        0.362830    0.262629    0.330688     0.007504
AU1029   AU        0.396471    0.224777    0.333771     0.007504
AU1030   AU        0.402343    0.260898    0.295544     0.007504
AU1031   AU        0.434746    0.219222    0.295016     0.007504
AU1032   AU        0.436601    0.259780    0.332307     0.007504
AU1033   AU        0.469774    0.221865    0.332616     0.007504
AU1034   AU        0.473028    0.256733    0.295740     0.007504
AU1035   AU        0.509786    0.219625    0.297983     0.007504
AU1036   AU        0.507646    0.256389    0.333127     0.007504
AU1037   AU        0.544546    0.214934    0.335906     0.007504
AU1038   AU        0.550226    0.257312    0.298579     0.007504
AU1039   AU        0.581635    0.214952    0.299566     0.007504
AU1040   AU        0.582086    0.252475    0.335260     0.007504
AU1041   AU        0.615625    0.213715    0.333335     0.007504
AU1042   AU        0.619542    0.251225    0.299362     0.007504
AU1043   AU        0.653869    0.209916    0.301386     0.007504
AU1044   AU        0.656283    0.246577    0.338037     0.007504
AU1045   AU        0.691263    0.209447    0.339043     0.007504
AU1046   AU        0.690915    0.245372    0.300605     0.007504
AU1047   AU        0.724801    0.209389    0.303303     0.007504
AU1048   AU        0.728737    0.244634    0.340469     0.007504
AU1049   AU        0.763166    0.207571    0.340478     0.007504
AU1050   AU        0.766146    0.239564    0.303075     0.007504
AU1051   AU        0.799937    0.241930    0.338528     0.007504
AU1052   AU        0.036520    0.311027    0.322209     0.007504
AU1053   AU        0.039545    0.346413    0.287310     0.007504
AU1054   AU        0.072830    0.306913    0.286243     0.007504
AU1055   AU        0.074783    0.348778    0.322271     0.007504
AU1056   AU        0.108474    0.306672    0.322981     0.007504
AU1057   AU        0.108481    0.343923    0.287646     0.007504
AU1058   AU        0.148231    0.308208    0.287665     0.007504
AU1059   AU        0.146242    0.345096    0.323238     0.007504
AU1060   AU        0.183864    0.308560    0.325560     0.007504
AU1061   AU        0.185719    0.345132    0.289324     0.007504
AU1062   AU        0.221187    0.304507    0.292274     0.007504
AU1063   AU        0.222889    0.341700    0.328673     0.007504
AU1064   AU        0.256488    0.304394    0.327979     0.007504
AU1065   AU        0.257318    0.339986    0.293748     0.007504
AU1066   AU        0.289556    0.300625    0.290500     0.007504
AU1067   AU        0.293041    0.338708    0.329156     0.007504
AU1068   AU        0.326309    0.299745    0.328894     0.007504
AU1069   AU        0.330219    0.337476    0.294120     0.007504
AU1070   AU        0.364760    0.298286    0.295577     0.007504
AU1071   AU        0.364899    0.332260    0.330480     0.007504
AU1072   AU        0.398721    0.295064    0.331071     0.007504
AU1073   AU        0.404482    0.333383    0.293589     0.007504
AU1074   AU        0.436826    0.296175    0.295065     0.007504
AU1075   AU        0.436379    0.330183    0.334562     0.007504
AU1076   AU        0.471526    0.294448    0.330792     0.007504
AU1077   AU        0.476164    0.330748    0.295715     0.007504
AU1078   AU        0.508945    0.289485    0.296774     0.007504
AU1079   AU        0.511662    0.328092    0.330218     0.007504
AU1080   AU        0.546446    0.291360    0.333461     0.007504
AU1081   AU        0.548772    0.322564    0.296905     0.007504
AU1082   AU        0.587415    0.289577    0.297717     0.007504
AU1083   AU        0.588645    0.324891    0.333710     0.007504
AU1084   AU        0.621010    0.286110    0.336542     0.007504
AU1085   AU        0.626381    0.321786    0.296141     0.007504
AU1086   AU        0.657243    0.285471    0.299386     0.007504
AU1087   AU        0.660848    0.321617    0.336027     0.007504
AU1088   AU        0.695204    0.282364    0.334804     0.007504
AU1089   AU        0.697640    0.315579    0.299828     0.007504
AU1090   AU        0.732212    0.279044    0.299361     0.007504
AU1091   AU        0.732219    0.316153    0.336341     0.007504
AU1092   AU        0.766305    0.279156    0.338741     0.007504
AU1093   AU        0.769490    0.316745    0.298433     0.007504
AU1094   AU        0.804417    0.275712    0.302757     0.007504
AU1095   AU        0.803024    0.314140    0.338914     0.007504
AU1096   AU        0.837661    0.277444    0.340697     0.007504
AU1097   AU        0.839069    0.312379    0.303996     0.007504
AU1098   AU        0.039683    0.384020    0.321386     0.007504
AU1099   AU        0.042346    0.420974    0.287440     0.007504
AU1100   AU        0.078204    0.384708    0.285430     0.007504
AU1101   AU        0.078692    0.421850    0.323774     0.007504
AU1102   AU        0.112885    0.383081    0.323360     0.007504
AU1103   AU        0.116015    0.419850    0.284827     0.007504
AU1104   AU        0.151348    0.383726    0.286273     0.007504
AU1105   AU        0.152602    0.417209    0.322146     0.007504
AU1106   AU        0.187332    0.378782    0.323225     0.007504
AU1107   AU        0.188364    0.414520    0.289184     0.007504
AU1108   AU        0.222367    0.377463    0.290600     0.007504
AU1109   AU        0.228363    0.414697    0.324918     0.007504
AU1110   AU        0.258547    0.376510    0.325999     0.007504
AU1111   AU        0.264161    0.412504    0.289671     0.007504
AU1112   AU        0.296696    0.374572    0.293409     0.007504
AU1113   AU        0.293989    0.409527    0.328736     0.007504
AU1114   AU        0.331243    0.371561    0.331231     0.007504
AU1115   AU        0.330486    0.409816    0.292619     0.007504
AU1116   AU        0.367502    0.370304    0.293428     0.007504
AU1117   AU        0.368597    0.405454    0.328738     0.007504
AU1118   AU        0.401918    0.367558    0.328929     0.007504
AU1119   AU        0.407359    0.404403    0.292428     0.007504
AU1120   AU        0.441613    0.366836    0.293861     0.007504
AU1121   AU        0.442857    0.402509    0.330993     0.007504
AU1122   AU        0.473441    0.363794    0.332426     0.007504
AU1123   AU        0.479301    0.399834    0.295655     0.007504
AU1124   AU        0.514944    0.364775    0.294864     0.007504
AU1125   AU        0.514182    0.399654    0.333534     0.007504
AU1126   AU        0.551823    0.362342    0.332330     0.007504
AU1127   AU        0.551812    0.398256    0.297270     0.007504
AU1128   AU        0.589836    0.360575    0.296946     0.007504
AU1129   AU        0.589270    0.397754    0.336323     0.007504
AU1130   AU        0.624237    0.358495    0.334186     0.007504
AU1131   AU        0.628073    0.393766    0.298976     0.007504
AU1132   AU        0.661356    0.357210    0.297379     0.007504
AU1133   AU        0.662740    0.392903    0.338498     0.007504
AU1134   AU        0.696631    0.356978    0.335359     0.007504
AU1135   AU        0.699136    0.390925    0.302812     0.007504
AU1136   AU        0.733310    0.352321    0.300427     0.007504
AU1137   AU        0.733629    0.389691    0.337746     0.007504
AU1138   AU        0.770458    0.348921    0.336806     0.007504
AU1139   AU        0.772583    0.384100    0.300546     0.007504
AU1140   AU        0.806274    0.349406    0.301226     0.007504
AU1141   AU        0.806419    0.385759    0.337299     0.007504
AU1142   AU        0.841203    0.348187    0.340984     0.007504
AU1143   AU        0.844456    0.386587    0.304005     0.007504
AU1144   AU        0.045278    0.461871    0.320608     0.007504
AU1145   AU        0.051255    0.498833    0.284810     0.007504
AU1146   AU        0.081811    0.455551    0.283749     0.007504
AU1147   AU        0.081970    0.494412    0.320703     0.007504
AU1148   AU        0.115542    0.457442    0.319135     0.007504
AU1149   AU        0.119613    0.489692    0.283860     0.007504
AU1150   AU        0.156401    0.454340    0.286564     0.007504
AU1151   AU        0.154694    0.489285    0.323548     0.007504
AU1152   AU        0.192228    0.449646    0.323622     0.007504
AU1153   AU        0.193726    0.489599    0.290509     0.007504
AU1154   AU        0.227863    0.450667    0.289697     0.007504
AU1155   AU        0.227417    0.487425    0.322400     0.007504
AU1156   AU        0.263701    0.451538    0.329289     0.007504
AU1157   AU        0.267739    0.487280    0.293830     0.007504
AU1158   AU        0.297669    0.449200    0.294153     0.007504
AU1159   AU        0.300374    0.484175    0.326853     0.007504
AU1160   AU        0.334067    0.444852    0.328865     0.007504
AU1161   AU        0.337337    0.481549    0.294110     0.007504
AU1162   AU        0.371421    0.443071    0.292072     0.007504
AU1163   AU        0.371350    0.476732    0.330863     0.007504
AU1164   AU        0.407361    0.441804    0.327557     0.007504
AU1165   AU        0.409904    0.476944    0.293252     0.007504
AU1166   AU        0.445904    0.439948    0.295187     0.007504
AU1167   AU        0.447427    0.473806    0.332560     0.007504
AU1168   AU        0.480282    0.437607    0.334599     0.007504
AU1169   AU        0.484872    0.474384    0.294264     0.007504
AU1170   AU        0.515100    0.435799    0.294766     0.007504
AU1171   AU        0.518270    0.470774    0.334325     0.007504
AU1172   AU        0.552077    0.434163    0.336507     0.007504
AU1173   AU        0.552729    0.469718    0.300717     0.007504
AU1174   AU        0.590521    0.431968    0.301191     0.007504
AU1175   AU        0.591783    0.468570    0.333670     0.007504
AU1176   AU        0.626929    0.429455    0.333202     0.007504
AU1177   AU        0.630483    0.467107    0.296388     0.007504
AU1178   AU        0.664885    0.429272    0.301030     0.007504
AU1179   AU        0.665396    0.466622    0.336046     0.007504
AU1180   AU        0.699909    0.428595    0.336708     0.007504
AU1181   AU        0.705631    0.466909    0.298647     0.007504
AU1182   AU        0.738593    0.425024    0.300598     0.007504
AU1183   AU        0.735564    0.460986    0.339484     0.007504
AU1184   AU        0.773035    0.420254    0.338874     0.007504
AU1185   AU        0.772073    0.459859    0.301558     0.007504
AU1186   AU        0.806670    0.422063    0.303103     0.007504
AU1187   AU        0.809214    0.456069    0.339217     0.007504
AU1188   AU        0.843026    0.419889    0.340110     0.007504
AU1189   AU        0.850314    0.457647    0.308550     0.007504
AU1190   AU        0.051234    0.534967    0.320630     0.007504
AU1191   AU        0.052221    0.568858    0.284784     0.007504
AU1192   AU        0.085519    0.532428    0.283786     0.007504
AU1193   AU        0.088707    0.568289    0.324219     0.007504
AU1194   AU        0.120804    0.528512    0.323422     0.007504
AU1195   AU        0.122703    0.565765    0.287225     0.007504
AU1196   AU        0.155303    0.526854    0.285963     0.007504
AU1197   AU        0.160855    0.561327    0.322992     0.007504
AU1198   AU        0.194358    0.524298    0.322709     0.007504
AU1199   AU        0.196833    0.563327    0.287970     0.007504
AU1200   AU        0.231046    0.523980    0.288278     0.007504
AU1201   AU        0.231954    0.559470    0.326983     0.007504
AU1202   AU        0.266176    0.524314    0.329615     0.007504
AU1203   AU        0.270247    0.557876    0.290986     0.007504
AU1204   AU        0.305657    0.519019    0.293955     0.007504
AU1205   AU        0.303489    0.558008    0.327683     0.007504
AU1206   AU        0.338302    0.515582    0.330824     0.007504
AU1207   AU        0.340187    0.555183    0.292929     0.007504
AU1208   AU        0.374520    0.513440    0.295328     0.007504
AU1209   AU        0.376733    0.553208    0.332842     0.007504
AU1210   AU        0.413479    0.511840    0.332622     0.007504
AU1211   AU        0.413037    0.548701    0.295601     0.007504
AU1212   AU        0.447676    0.509577    0.296161     0.007504
AU1213   AU        0.450522    0.543799    0.331110     0.007504
AU1214   AU        0.484593    0.507791    0.333337     0.007504
AU1215   AU        0.488709    0.546407    0.297087     0.007504
AU1216   AU        0.521431    0.506679    0.297372     0.007504
AU1217   AU        0.522947    0.543796    0.333068     0.007504
AU1218   AU        0.557009    0.508790    0.332339     0.007504
AU1219   AU        0.557725    0.544099    0.297191     0.007504
AU1220   AU        0.592952    0.507665    0.296745     0.007504
AU1221   AU        0.596298    0.542983    0.332332     0.007504
AU1222   AU        0.628387    0.502327    0.333615     0.007504
AU1223   AU        0.632159    0.539968    0.299631     0.007504
AU1224   AU        0.668171    0.502509    0.296648     0.007504
AU1225   AU        0.669392    0.536560    0.334738     0.007504
AU1226   AU        0.703276    0.500600    0.337732     0.007504
AU1227   AU        0.708521    0.537104    0.301162     0.007504
AU1228   AU        0.741698    0.499725    0.301763     0.007504
AU1229   AU        0.742311    0.535687    0.338069     0.007504
AU1230   AU        0.775111    0.493322    0.339227     0.007504
AU1231   AU        0.778899    0.533898    0.303883     0.007504
AU1232   AU        0.811099    0.494276    0.304599     0.007504
AU1233   AU        0.812279    0.529807    0.341872     0.007504
AU1234   AU        0.844875    0.493506    0.342869     0.007504
AU1235   AU        0.851379    0.529481    0.305140     0.007504
AU1236   AU        0.053273    0.607494    0.320254     0.007504
AU1237   AU        0.088778    0.604841    0.284193     0.007504
AU1238   AU        0.091380    0.640980    0.320981     0.007504
AU1239   AU        0.125681    0.604779    0.322124     0.007504
AU1240   AU        0.126394    0.640381    0.284263     0.007504
AU1241   AU        0.161321    0.600208    0.289859     0.007504
AU1242   AU        0.163401    0.637696    0.323264     0.007504
AU1243   AU        0.198203    0.595474    0.326084     0.007504
AU1244   AU        0.199828    0.637216    0.290132     0.007504
AU1245   AU        0.236149    0.599019    0.289025     0.007504
AU1246   AU        0.237153    0.634605    0.322865     0.007504
AU1247   AU        0.270677    0.596100    0.325103     0.007504
AU1248   AU        0.275294    0.631614    0.288066     0.007504
AU1249   AU        0.308905    0.593573    0.291690     0.007504
AU1250   AU        0.308941    0.627291    0.328361     0.007504
AU1251   AU        0.344238    0.590328    0.328485     0.007504
AU1252   AU        0.346814    0.627863    0.291615     0.007504
AU1253   AU        0.381190    0.588052    0.290034     0.007504
AU1254   AU        0.381384    0.621946    0.327584     0.007504
AU1255   AU        0.417110    0.586705    0.330204     0.007504
AU1256   AU        0.419753    0.622359    0.295970     0.007504
AU1257   AU        0.453216    0.584172    0.296717     0.007504
AU1258   AU        0.455893    0.622649    0.333161     0.007504
AU1259   AU        0.487966    0.581748    0.332979     0.007504
AU1260   AU        0.488760    0.618634    0.294509     0.007504
AU1261   AU        0.528527    0.581531    0.296878     0.007504
AU1262   AU        0.523896    0.619546    0.330337     0.007504
AU1263   AU        0.560495    0.579748    0.335575     0.007504
AU1264   AU        0.564029    0.616996    0.296261     0.007504
AU1265   AU        0.599102    0.579406    0.296748     0.007504
AU1266   AU        0.596289    0.612670    0.335279     0.007504
AU1267   AU        0.634646    0.577062    0.335079     0.007504
AU1268   AU        0.635348    0.613323    0.300577     0.007504
AU1269   AU        0.672507    0.570686    0.300255     0.007504
AU1270   AU        0.670075    0.611555    0.333265     0.007504
AU1271   AU        0.705664    0.573548    0.335896     0.007504
AU1272   AU        0.708127    0.611180    0.300761     0.007504
AU1273   AU        0.745014    0.569883    0.300750     0.007504
AU1274   AU        0.742817    0.605252    0.339129     0.007504
AU1275   AU        0.778271    0.568689    0.340212     0.007504
AU1276   AU        0.779783    0.606822    0.302534     0.007504
AU1277   AU        0.816351    0.569954    0.304525     0.007504
AU1278   AU        0.819028    0.604069    0.340828     0.007504
AU1279   AU        0.849719    0.562824    0.342891     0.007504
AU1280   AU        0.130337    0.676309    0.324101     0.007504
AU1281   AU        0.132496    0.713766    0.287307     0.007504
AU1282   AU        0.167269    0.675601    0.288131     0.007504
AU1283   AU        0.168724    0.712006    0.324049     0.007504
AU1284   AU        0.205548    0.671843    0.328257     0.007504
AU1285   AU        0.205818    0.708795    0.287449     0.007504
AU1286   AU        0.239190    0.672312    0.289443     0.007504
AU1287   AU        0.242335    0.707851    0.328033     0.007504
AU1288   AU        0.275125    0.668905    0.325034     0.007504
AU1289   AU        0.280014    0.705639    0.292428     0.007504
AU1290   AU        0.312130    0.666363    0.292572     0.007504
AU1291   AU        0.314911    0.704000    0.330259     0.007504
AU1292   AU        0.345659    0.660851    0.329368     0.007504
AU1293   AU        0.349963    0.701153    0.295338     0.007504
AU1294   AU        0.384190    0.663091    0.294723     0.007504
AU1295   AU        0.382505    0.701745    0.327320     0.007504
AU1296   AU        0.418613    0.660263    0.332485     0.007504
AU1297   AU        0.421457    0.694196    0.294162     0.007504
AU1298   AU        0.455788    0.657216    0.291492     0.007504
AU1299   AU        0.459661    0.695276    0.330622     0.007504
AU1300   AU        0.493397    0.659278    0.331103     0.007504
AU1301   AU        0.494994    0.691946    0.295721     0.007504
AU1302   AU        0.529137    0.654501    0.295017     0.007504
AU1303   AU        0.529981    0.691067    0.334607     0.007504
AU1304   AU        0.562782    0.650481    0.334284     0.007504
AU1305   AU        0.564852    0.689573    0.300207     0.007504
AU1306   AU        0.601180    0.651489    0.298767     0.007504
AU1307   AU        0.602552    0.689447    0.334849     0.007504
AU1308   AU        0.635358    0.649625    0.335089     0.007504
AU1309   AU        0.638113    0.689797    0.298940     0.007504
AU1310   AU        0.671762    0.650072    0.300688     0.007504
AU1311   AU        0.672215    0.683018    0.335911     0.007504
AU1312   AU        0.706392    0.645797    0.336563     0.007504
AU1313   AU        0.714102    0.681340    0.300927     0.007504
AU1314   AU        0.745299    0.643966    0.303233     0.007504
AU1315   AU        0.746648    0.677795    0.339156     0.007504
AU1316   AU        0.781154    0.642456    0.340091     0.007504
AU1317   AU        0.785663    0.678156    0.302707     0.007504
AU1318   AU        0.169506    0.749716    0.289983     0.007504
AU1319   AU        0.206314    0.745989    0.323677     0.007504
AU1320   AU        0.211254    0.784299    0.288209     0.007504
AU1321   AU        0.241916    0.740985    0.290482     0.007504
AU1322   AU        0.244859    0.778400    0.326192     0.007504
AU1323   AU        0.280188    0.738895    0.328270     0.007504
AU1324   AU        0.283619    0.778518    0.291221     0.007504
AU1325   AU        0.316430    0.738382    0.293238     0.007504
AU1326   AU        0.315558    0.777051    0.328427     0.007504
AU1327   AU        0.350193    0.741062    0.329810     0.007504
AU1328   AU        0.355154    0.775250    0.293872     0.007504
AU1329   AU        0.388990    0.736646    0.295858     0.007504
AU1330   AU        0.390647    0.770624    0.331473     0.007504
AU1331   AU        0.422265    0.730118    0.330153     0.007504
AU1332   AU        0.427214    0.768019    0.297044     0.007504
AU1333   AU        0.458365    0.729739    0.296008     0.007504
AU1334   AU        0.459619    0.766818    0.333227     0.007504
AU1335   AU        0.494331    0.729132    0.332022     0.007504
AU1336   AU        0.498758    0.765828    0.300901     0.007504
AU1337   AU        0.531128    0.727624    0.297361     0.007504
AU1338   AU        0.533986    0.765801    0.334180     0.007504
AU1339   AU        0.566087    0.727664    0.336194     0.007504
AU1340   AU        0.567667    0.761562    0.296786     0.007504
AU1341   AU        0.602062    0.728369    0.299132     0.007504
AU1342   AU        0.605046    0.761517    0.339231     0.007504
AU1343   AU        0.639115    0.725360    0.337026     0.007504
AU1344   AU        0.641086    0.758202    0.302183     0.007504
AU1345   AU        0.678905    0.720817    0.300911     0.007504
AU1346   AU        0.677698    0.757247    0.338322     0.007504
AU1347   AU        0.713216    0.718418    0.338780     0.007504
AU1348   AU        0.719148    0.753752    0.301559     0.007504
AU1349   AU        0.752266    0.713916    0.304289     0.007504
AU1350   AU        0.278714    0.815231    0.328848     0.007504
AU1351   AU        0.319330    0.813101    0.290165     0.007504
AU1352   AU        0.318878    0.848063    0.328589     0.007504
AU1353   AU        0.354341    0.811703    0.329658     0.007504
AU1354   AU        0.357804    0.846945    0.294862     0.007504
AU1355   AU        0.393376    0.807634    0.293962     0.007504
AU1356   AU        0.393788    0.846403    0.333162     0.007504
AU1357   AU        0.426632    0.808154    0.332257     0.007504
AU1358   AU        0.432377    0.843179    0.296783     0.007504
AU1359   AU        0.462763    0.804120    0.298228     0.007504
AU1360   AU        0.463826    0.837890    0.334573     0.007504
AU1361   AU        0.497979    0.801913    0.335650     0.007504
AU1362   AU        0.501205    0.841396    0.298770     0.007504
AU1363   AU        0.534443    0.801385    0.299447     0.007504
AU1364   AU        0.537182    0.836815    0.337145     0.007504
AU1365   AU        0.570172    0.795862    0.337666     0.007504
AU1366   AU        0.572626    0.833533    0.302668     0.007504
AU1367   AU        0.606940    0.794946    0.302585     0.007504
AU1368   AU        0.608119    0.832440    0.338711     0.007504
AU1369   AU        0.641913    0.793591    0.338950     0.007504
AU1370   AU        0.241226    0.047457    0.362879     0.007504
AU1371   AU        0.276792    0.048302    0.398222     0.007504
AU1372   AU        0.315919    0.041261    0.364657     0.007504
AU1373   AU        0.353208    0.042127    0.400611     0.007504
AU1374   AU        0.385342    0.005148    0.400737     0.007504
AU1375   AU        0.390208    0.042359    0.366182     0.007504
AU1376   AU        0.422972    0.005074    0.367999     0.007504
AU1377   AU        0.427094    0.040940    0.403267     0.007504
AU1378   AU        0.459486    0.003229    0.404696     0.007504
AU1379   AU        0.461806    0.037806    0.368616     0.007504
AU1380   AU        0.495056    0.039251    0.405052     0.007504
AU1381   AU        0.533928    0.032707    0.371238     0.007504
AU1382   AU        0.570140    0.035634    0.410414     0.007504
AU1383   AU        0.609651    0.030556    0.373281     0.007504
AU1384   AU        0.135147    0.126057    0.397993     0.007504
AU1385   AU        0.172300    0.088123    0.395344     0.007504
AU1386   AU        0.174611    0.124793    0.360328     0.007504
AU1387   AU        0.207197    0.085926    0.359710     0.007504
AU1388   AU        0.210412    0.122890    0.395908     0.007504
AU1389   AU        0.243726    0.086695    0.398117     0.007504
AU1390   AU        0.246625    0.122601    0.362075     0.007504
AU1391   AU        0.282390    0.081086    0.361818     0.007504
AU1392   AU        0.282696    0.118679    0.398153     0.007504
AU1393   AU        0.318509    0.081117    0.398263     0.007504
AU1394   AU        0.318493    0.118739    0.363618     0.007504
AU1395   AU        0.354891    0.076846    0.364847     0.007504
AU1396   AU        0.353726    0.115120    0.400364     0.007504
AU1397   AU        0.389412    0.079683    0.401958     0.007504
AU1398   AU        0.392379    0.112685    0.365728     0.007504
AU1399   AU        0.426046    0.076097    0.367723     0.007504
AU1400   AU        0.425632    0.113744    0.404246     0.007504
AU1401   AU        0.463766    0.078006    0.401880     0.007504
AU1402   AU        0.465578    0.111817    0.366477     0.007504
AU1403   AU        0.502513    0.072788    0.367022     0.007504
AU1404   AU        0.501546    0.111239    0.405928     0.007504
AU1405   AU        0.535593    0.073783    0.402748     0.007504
AU1406   AU        0.536531    0.106999    0.368056     0.007504
AU1407   AU        0.573801    0.069247    0.368567     0.007504
AU1408   AU        0.572689    0.104979    0.405557     0.007504
AU1409   AU        0.605960    0.067789    0.407498     0.007504
AU1410   AU        0.610771    0.101902    0.371376     0.007504
AU1411   AU        0.648199    0.066475    0.370273     0.007504
AU1412   AU        0.647379    0.100403    0.407571     0.007504
AU1413   AU        0.682723    0.063574    0.409011     0.007504
AU1414   AU        0.686588    0.100411    0.373702     0.007504
AU1415   AU        0.720300    0.099861    0.412148     0.007504
AU1416   AU        0.066907    0.201155    0.397553     0.007504
AU1417   AU        0.102508    0.163141    0.398489     0.007504
AU1418   AU        0.103866    0.201532    0.362570     0.007504
AU1419   AU        0.138406    0.163720    0.358245     0.007504
AU1420   AU        0.139932    0.197561    0.397137     0.007504
AU1421   AU        0.175678    0.158694    0.398294     0.007504
AU1422   AU        0.176983    0.195690    0.360225     0.007504
AU1423   AU        0.213358    0.160976    0.360548     0.007504
AU1424   AU        0.215492    0.193239    0.397268     0.007504
AU1425   AU        0.250070    0.155881    0.399676     0.007504
AU1426   AU        0.252170    0.194515    0.361978     0.007504
AU1427   AU        0.284110    0.156392    0.361380     0.007504
AU1428   AU        0.283133    0.192555    0.398619     0.007504
AU1429   AU        0.319327    0.152285    0.400147     0.007504
AU1430   AU        0.319534    0.190189    0.364968     0.007504
AU1431   AU        0.357009    0.152945    0.363572     0.007504
AU1432   AU        0.358019    0.186657    0.403995     0.007504
AU1433   AU        0.390111    0.148936    0.404655     0.007504
AU1434   AU        0.394900    0.187541    0.367855     0.007504
AU1435   AU        0.432406    0.149272    0.366486     0.007504
AU1436   AU        0.430582    0.186403    0.401692     0.007504
AU1437   AU        0.465801    0.149238    0.405060     0.007504
AU1438   AU        0.468231    0.186099    0.368081     0.007504
AU1439   AU        0.503631    0.144273    0.367620     0.007504
AU1440   AU        0.502775    0.181978    0.407041     0.007504
AU1441   AU        0.539111    0.142469    0.404579     0.007504
AU1442   AU        0.543658    0.177617    0.370631     0.007504
AU1443   AU        0.578428    0.139077    0.371340     0.007504
AU1444   AU        0.574154    0.178461    0.408505     0.007504
AU1445   AU        0.613445    0.141853    0.407307     0.007504
AU1446   AU        0.616810    0.178402    0.370494     0.007504
AU1447   AU        0.650731    0.136666    0.372314     0.007504
AU1448   AU        0.649276    0.176192    0.407774     0.007504
AU1449   AU        0.684508    0.136886    0.407185     0.007504
AU1450   AU        0.687330    0.174902    0.373677     0.007504
AU1451   AU        0.723470    0.138876    0.373113     0.007504
AU1452   AU        0.721522    0.173130    0.411347     0.007504
AU1453   AU        0.756977    0.132198    0.413366     0.007504
AU1454   AU        0.761119    0.171271    0.375131     0.007504
AU1455   AU        0.796720    0.169087    0.415337     0.007504
AU1456   AU        0.037282    0.276343    0.360753     0.007504
AU1457   AU        0.068319    0.236525    0.362088     0.007504
AU1458   AU        0.072590    0.275890    0.397304     0.007504
AU1459   AU        0.106156    0.240028    0.395695     0.007504
AU1460   AU        0.108185    0.274088    0.359250     0.007504
AU1461   AU        0.143275    0.237174    0.364607     0.007504
AU1462   AU        0.146861    0.273021    0.396664     0.007504
AU1463   AU        0.179415    0.231650    0.395474     0.007504
AU1464   AU        0.178346    0.271699    0.359835     0.007504
AU1465   AU        0.215504    0.231936    0.362045     0.007504
AU1466   AU        0.215038    0.268777    0.396199     0.007504
AU1467   AU        0.248081    0.231640    0.401166     0.007504
AU1468   AU        0.254974    0.268175    0.363925     0.007504
AU1469   AU        0.286966    0.230978    0.364119     0.007504
AU1470   AU        0.290010    0.267765    0.401335     0.007504
AU1471   AU        0.323065    0.228975    0.401959     0.007504
AU1472   AU        0.326206    0.263720    0.366004     0.007504
AU1473   AU        0.360228    0.225232    0.368018     0.007504
AU1474   AU        0.360557    0.263531    0.403220     0.007504
AU1475   AU        0.395210    0.226083    0.404753     0.007504
AU1476   AU        0.398677    0.261443    0.368868     0.007504
AU1477   AU        0.434157    0.222710    0.368876     0.007504
AU1478   AU        0.436422    0.257827    0.404826     0.007504
AU1479   AU        0.470082    0.221265    0.404701     0.007504
AU1480   AU        0.470907    0.256590    0.368497     0.007504
AU1481   AU        0.506203    0.217303    0.368019     0.007504
AU1482   AU        0.506908    0.255870    0.405979     0.007504
AU1483   AU        0.542822    0.215177    0.406952     0.007504
AU1484   AU        0.545008    0.253821    0.372872     0.007504
AU1485   AU        0.577872    0.215609    0.371006     0.007504
AU1486   AU        0.579210    0.250831    0.409198     0.007504
AU1487   AU        0.612933    0.213697    0.408818     0.007504
AU1488   AU        0.615566    0.246837    0.370632     0.007504
AU1489   AU        0.650366    0.211718    0.372673     0.007504
AU1490   AU        0.652575    0.248070    0.411924     0.007504
AU1491   AU        0.689608    0.210011    0.409219     0.007504
AU1492   AU        0.692021    0.247193    0.374414     0.007504
AU1493   AU        0.725721    0.209159    0.375293     0.007504
AU1494   AU        0.725953    0.245726    0.411044     0.007504
AU1495   AU        0.758167    0.206479    0.413435     0.007504
AU1496   AU        0.764501    0.242894    0.377851     0.007504
AU1497   AU        0.798857    0.204998    0.378486     0.007504
AU1498   AU        0.798136    0.243435    0.413110     0.007504
AU1499   AU        0.834041    0.240565    0.378073     0.007504
AU1500   AU        0.035719    0.310645    0.396389     0.007504
AU1501   AU        0.039020    0.347010    0.356016     0.007504
AU1502   AU        0.073706    0.310951    0.360206     0.007504
AU1503   AU        0.072305    0.348581    0.394008     0.007504
AU1504   AU        0.111321    0.311665    0.396454     0.007504
AU1505   AU        0.108795    0.346452    0.358931     0.007504
AU1506   AU        0.142667    0.308396    0.358232     0.007504
AU1507   AU        0.146436    0.346320    0.397079     0.007504
AU1508   AU        0.182263    0.306955    0.397861     0.007504
AU1509   AU        0.182467    0.344281    0.360720     0.007504
AU1510   AU        0.220827    0.305861    0.362968     0.007504
AU1511   AU        0.218695    0.345117    0.398066     0.007504
AU1512   AU        0.252376    0.304024    0.400502     0.007504
AU1513   AU        0.258478    0.342719    0.364894     0.007504
AU1514   AU        0.291661    0.303656    0.366037     0.007504
AU1515   AU        0.293123    0.339330    0.401834     0.007504
AU1516   AU        0.326613    0.298832    0.400188     0.007504
AU1517   AU        0.330743    0.336929    0.367905     0.007504
AU1518   AU        0.364256    0.298874    0.367792     0.007504
AU1519   AU        0.365885    0.335621    0.402570     0.007504
AU1520   AU        0.398283    0.297526    0.403683     0.007504
AU1521   AU        0.401271    0.334567    0.366621     0.007504
AU1522   AU        0.436161    0.293832    0.370305     0.007504
AU1523   AU        0.436020    0.332850    0.407266     0.007504
AU1524   AU        0.474216    0.292759    0.403923     0.007504
AU1525   AU        0.473735    0.328879    0.370651     0.007504
AU1526   AU        0.511119    0.292148    0.369142     0.007504
AU1527   AU        0.509683    0.327894    0.403447     0.007504
AU1528   AU        0.546460    0.289891    0.408156     0.007504
AU1529   AU        0.550245    0.326963    0.369010     0.007504
AU1530   AU        0.579666    0.288339    0.370857     0.007504
AU1531   AU        0.584268    0.323676    0.404321     0.007504
AU1532   AU        0.615504    0.284516    0.405637     0.007504
AU1533   AU        0.621574    0.320614    0.369064     0.007504
AU1534   AU        0.655173    0.281369    0.371600     0.007504
AU1535   AU        0.655966    0.317285    0.407786     0.007504
AU1536   AU        0.692192    0.281859    0.410543     0.007504
AU1537   AU        0.695537    0.319664    0.373259     0.007504
AU1538   AU        0.728638    0.284344    0.373690     0.007504
AU1539   AU        0.726724    0.318098    0.412289     0.007504
AU1540   AU        0.762061    0.283128    0.409625     0.007504
AU1541   AU        0.764962    0.317992    0.372614     0.007504
AU1542   AU        0.799397    0.279996    0.376114     0.007504
AU1543   AU        0.801024    0.312436    0.411921     0.007504
AU1544   AU        0.835866    0.275259    0.414991     0.007504
AU1545   AU        0.837711    0.312432    0.376838     0.007504
AU1546   AU        0.006730    0.426471    0.394085     0.007504
AU1547   AU        0.039031    0.387996    0.394339     0.007504
AU1548   AU        0.042898    0.425187    0.358349     0.007504
AU1549   AU        0.076944    0.385700    0.356833     0.007504
AU1550   AU        0.076869    0.422953    0.393443     0.007504
AU1551   AU        0.111439    0.384702    0.396169     0.007504
AU1552   AU        0.115658    0.419206    0.358952     0.007504
AU1553   AU        0.153223    0.383539    0.359254     0.007504
AU1554   AU        0.148387    0.418465    0.397547     0.007504
AU1555   AU        0.186757    0.384349    0.399183     0.007504
AU1556   AU        0.189564    0.418743    0.360176     0.007504
AU1557   AU        0.219604    0.377963    0.362549     0.007504
AU1558   AU        0.225834    0.415708    0.397446     0.007504
AU1559   AU        0.257955    0.376430    0.401545     0.007504
AU1560   AU        0.261735    0.414824    0.366593     0.007504
AU1561   AU        0.295338    0.374623    0.368661     0.007504
AU1562   AU        0.295201    0.410208    0.403724     0.007504
AU1563   AU        0.331773    0.374336    0.402702     0.007504
AU1564   AU        0.332911    0.408915    0.364900     0.007504
AU1565   AU        0.368561    0.371910    0.367014     0.007504
AU1566   AU        0.367030    0.409069    0.401633     0.007504
AU1567   AU        0.403585    0.371003    0.404150     0.007504
AU1568   AU        0.408049    0.403972    0.366911     0.007504
AU1569   AU        0.440355    0.367181    0.370625     0.007504
AU1570   AU        0.440628    0.404474    0.404440     0.007504
AU1571   AU        0.474409    0.364402    0.405606     0.007504
AU1572   AU        0.477828    0.400904    0.368943     0.007504
AU1573   AU        0.511378    0.361080    0.367850     0.007504
AU1574   AU        0.514044    0.397558    0.403525     0.007504
AU1575   AU        0.547870    0.360617    0.404386     0.007504
AU1576   AU        0.553010    0.397282    0.367518     0.007504
AU1577   AU        0.586631    0.362087    0.369323     0.007504
AU1578   AU        0.587163    0.394927    0.407908     0.007504
AU1579   AU        0.622722    0.357907    0.407952     0.007504
AU1580   AU        0.622412    0.395865    0.372482     0.007504
AU1581   AU        0.658594    0.355798    0.371111     0.007504
AU1582   AU        0.655925    0.392654    0.410575     0.007504
AU1583   AU        0.693910    0.355041    0.407809     0.007504
AU1584   AU        0.697017    0.392159    0.373368     0.007504
AU1585   AU        0.729307    0.352173    0.374493     0.007504
AU1586   AU        0.731590    0.388186    0.411533     0.007504
AU1587   AU        0.766899    0.352094    0.412345     0.007504
AU1588   AU        0.770093    0.386319    0.376426     0.007504
AU1589   AU        0.803449    0.347760    0.375823     0.007504
AU1590   AU        0.805438    0.385211    0.412769     0.007504
AU1591   AU        0.840556    0.349247    0.413477     0.007504
AU1592   AU        0.841049    0.384763    0.377727     0.007504
AU1593   AU        0.878303    0.384547    0.413348     0.007504
AU1594   AU        0.006368    0.462922    0.356162     0.007504
AU1595   AU        0.009948    0.498153    0.394013     0.007504
AU1596   AU        0.044988    0.459070    0.392881     0.007504
AU1597   AU        0.044007    0.496213    0.358489     0.007504
AU1598   AU        0.080372    0.460408    0.356554     0.007504
AU1599   AU        0.081264    0.495647    0.393299     0.007504
AU1600   AU        0.116972    0.455637    0.394131     0.007504
AU1601   AU        0.119934    0.490741    0.359310     0.007504
AU1602   AU        0.153640    0.454331    0.359695     0.007504
AU1603   AU        0.154301    0.491394    0.399835     0.007504
AU1604   AU        0.187302    0.452152    0.396696     0.007504
AU1605   AU        0.191253    0.490432    0.357565     0.007504
AU1606   AU        0.225676    0.450847    0.360134     0.007504
AU1607   AU        0.224629    0.484110    0.398931     0.007504
AU1608   AU        0.262547    0.448243    0.401721     0.007504
AU1609   AU        0.266099    0.484334    0.366194     0.007504
AU1610   AU        0.297654    0.445703    0.366141     0.007504
AU1611   AU        0.300612    0.484122    0.401152     0.007504
AU1612   AU        0.332731    0.443345    0.400987     0.007504
AU1613   AU        0.336031    0.481184    0.367279     0.007504
AU1614   AU        0.371335    0.443927    0.365837     0.007504
AU1615   AU        0.372957    0.478573    0.402617     0.007504
AU1616   AU        0.404978    0.441395    0.404059     0.007504
AU1617   AU        0.411960    0.474892    0.367499     0.007504
AU1618   AU        0.442483    0.436776    0.368956     0.007504
AU1619   AU        0.443328    0.471844    0.407195     0.007504
AU1620   AU        0.479372    0.435855    0.406373     0.007504
AU1621   AU        0.482325    0.470679    0.370457     0.007504
AU1622   AU        0.517026    0.434874    0.371505     0.007504
AU1623   AU        0.518106    0.471152    0.407131     0.007504
AU1624   AU        0.553878    0.433123    0.406236     0.007504
AU1625   AU        0.555506    0.471414    0.370409     0.007504
AU1626   AU        0.590860    0.434131    0.371667     0.007504
AU1627   AU        0.591524    0.469676    0.407917     0.007504
AU1628   AU        0.626449    0.432548    0.408896     0.007504
AU1629   AU        0.629731    0.466268    0.370126     0.007504
AU1630   AU        0.663739    0.429142    0.373588     0.007504
AU1631   AU        0.664639    0.465878    0.408363     0.007504
AU1632   AU        0.699093    0.424685    0.410047     0.007504
AU1633   AU        0.702432    0.463677    0.372380     0.007504
AU1634   AU        0.736894    0.423398    0.374463     0.007504
AU1635   AU        0.734225    0.460282    0.409370     0.007504
AU1636   AU        0.771812    0.421941    0.410574     0.007504
AU1637   AU        0.770088    0.456040    0.373779     0.007504
AU1638   AU        0.804012    0.420531    0.376433     0.007504
AU1639   AU        0.808386    0.459703    0.410726     0.007504
AU1640   AU        0.842185    0.421582    0.411342     0.007504
AU1641   AU        0.843626    0.455560    0.375604     0.007504
AU1642   AU        0.879366    0.421577    0.376321     0.007504
AU1643   AU        0.880274    0.457942    0.412717     0.007504
AU1644   AU        0.045692    0.534112    0.393815     0.007504
AU1645   AU        0.050537    0.570916    0.357485     0.007504
AU1646   AU        0.083607    0.530784    0.359619     0.007504
AU1647   AU        0.085526    0.568443    0.394333     0.007504
AU1648   AU        0.121187    0.529404    0.393443     0.007504
AU1649   AU        0.122350    0.564728    0.357463     0.007504
AU1650   AU        0.156763    0.526233    0.360062     0.007504
AU1651   AU        0.160035    0.562137    0.398169     0.007504
AU1652   AU        0.190432    0.525476    0.398036     0.007504
AU1653   AU        0.195962    0.556790    0.361424     0.007504
AU1654   AU        0.233207    0.520461    0.364353     0.007504
AU1655   AU        0.229683    0.560873    0.398745     0.007504
AU1656   AU        0.264250    0.524129    0.400085     0.007504
AU1657   AU        0.265899    0.559921    0.364894     0.007504
AU1658   AU        0.302650    0.523225    0.365233     0.007504
AU1659   AU        0.303831    0.556667    0.402595     0.007504
AU1660   AU        0.340062    0.518806    0.399837     0.007504
AU1661   AU        0.339565    0.555538    0.365533     0.007504
AU1662   AU        0.374466    0.515073    0.366535     0.007504
AU1663   AU        0.378160    0.550065    0.403255     0.007504
AU1664   AU        0.410628    0.513440    0.402667     0.007504
AU1665   AU        0.411911    0.550863    0.366180     0.007504
AU1666   AU        0.447795    0.508854    0.369638     0.007504
AU1667   AU        0.447414    0.546875    0.403732     0.007504
AU1668   AU        0.483692    0.507744    0.404404     0.007504
AU1669   AU        0.486325    0.545936    0.368925     0.007504
AU1670   AU        0.518080    0.504314    0.370318     0.007504
AU1671   AU        0.521741    0.541104    0.402882     0.007504
AU1672   AU        0.557296    0.505843    0.404694     0.007504
AU1673   AU        0.558587    0.541353    0.370585     0.007504
AU1674   AU        0.592627    0.504571    0.370388     0.007504
AU1675   AU        0.594008    0.543863    0.405171     0.007504
AU1676   AU        0.628119    0.506838    0.405887     0.007504
AU1677   AU        0.630275    0.538671    0.370324     0.007504
AU1678   AU        0.666455    0.504579    0.372042     0.007504
AU1679   AU        0.669638    0.538819    0.410927     0.007504
AU1680   AU        0.700207    0.500204    0.409836     0.007504
AU1681   AU        0.704341    0.536436    0.373389     0.007504
AU1682   AU        0.738208    0.498018    0.372272     0.007504
AU1683   AU        0.739046    0.533636    0.412672     0.007504
AU1684   AU        0.770875    0.493618    0.408016     0.007504
AU1685   AU        0.774733    0.532610    0.375099     0.007504
AU1686   AU        0.810097    0.493625    0.376110     0.007504
AU1687   AU        0.808126    0.530875    0.411021     0.007504
AU1688   AU        0.844172    0.494167    0.412153     0.007504
AU1689   AU        0.847562    0.528884    0.377329     0.007504
AU1690   AU        0.047908    0.605706    0.389177     0.007504
AU1691   AU        0.054196    0.642899    0.357079     0.007504
AU1692   AU        0.087788    0.604424    0.357348     0.007504
AU1693   AU        0.087232    0.641875    0.394463     0.007504
AU1694   AU        0.124190    0.601867    0.395681     0.007504
AU1695   AU        0.126733    0.638857    0.359567     0.007504
AU1696   AU        0.160194    0.598864    0.360090     0.007504
AU1697   AU        0.164364    0.638923    0.396450     0.007504
AU1698   AU        0.196303    0.596672    0.395455     0.007504
AU1699   AU        0.201040    0.635200    0.361257     0.007504
AU1700   AU        0.232362    0.595779    0.361075     0.007504
AU1701   AU        0.232628    0.632532    0.399365     0.007504
AU1702   AU        0.268354    0.596667    0.396904     0.007504
AU1703   AU        0.271926    0.631913    0.361749     0.007504
AU1704   AU        0.305737    0.592374    0.365464     0.007504
AU1705   AU        0.307223    0.629182    0.398698     0.007504
AU1706   AU        0.343026    0.590340    0.402175     0.007504
AU1707   AU        0.349314    0.627373    0.364347     0.007504
AU1708   AU        0.379215    0.588299    0.367184     0.007504
AU1709   AU        0.381347    0.626704    0.399926     0.007504
AU1710   AU        0.414032    0.587008    0.400142     0.007504
AU1711   AU        0.416046    0.623723    0.365855     0.007504
AU1712   AU        0.451536    0.582328    0.366284     0.007504
AU1713   AU        0.452584    0.621338    0.403194     0.007504
AU1714   AU        0.487344    0.581260    0.405404     0.007504
AU1715   AU        0.489094    0.619737    0.369955     0.007504
AU1716   AU        0.521772    0.579732    0.369643     0.007504
AU1717   AU        0.523557    0.619021    0.406048     0.007504
AU1718   AU        0.558022    0.579312    0.406691     0.007504
AU1719   AU        0.560887    0.616530    0.369698     0.007504
AU1720   AU        0.596359    0.578902    0.372969     0.007504
AU1721   AU        0.596733    0.614298    0.408017     0.007504
AU1722   AU        0.632835    0.574458    0.407877     0.007504
AU1723   AU        0.633550    0.610974    0.371816     0.007504
AU1724   AU        0.669665    0.574125    0.373934     0.007504
AU1725   AU        0.667894    0.611726    0.407958     0.007504
AU1726   AU        0.704897    0.574310    0.410814     0.007504
AU1727   AU        0.704985    0.610162    0.373089     0.007504
AU1728   AU        0.739919    0.572931    0.375321     0.007504
AU1729   AU        0.740720    0.608695    0.409943     0.007504
AU1730   AU        0.774332    0.568796    0.409781     0.007504
AU1731   AU        0.777263    0.606427    0.373794     0.007504
AU1732   AU        0.811295    0.566611    0.375468     0.007504
AU1733   AU        0.813550    0.604705    0.410380     0.007504
AU1734   AU        0.845730    0.564921    0.413741     0.007504
AU1735   AU        0.851025    0.601896    0.379652     0.007504
AU1736   AU        0.093426    0.679229    0.359878     0.007504
AU1737   AU        0.091813    0.716729    0.393760     0.007504
AU1738   AU        0.130816    0.675654    0.393114     0.007504
AU1739   AU        0.132958    0.713303    0.358076     0.007504
AU1740   AU        0.165530    0.675860    0.359400     0.007504
AU1741   AU        0.166268    0.711138    0.395874     0.007504
AU1742   AU        0.199402    0.671433    0.396354     0.007504
AU1743   AU        0.204613    0.709850    0.362681     0.007504
AU1744   AU        0.238763    0.669880    0.363344     0.007504
AU1745   AU        0.237876    0.704073    0.399360     0.007504
AU1746   AU        0.272632    0.665596    0.398568     0.007504
AU1747   AU        0.275114    0.704860    0.364497     0.007504
AU1748   AU        0.309190    0.665087    0.364906     0.007504
AU1749   AU        0.309435    0.702977    0.400701     0.007504
AU1750   AU        0.345756    0.664920    0.400953     0.007504
AU1751   AU        0.347571    0.701650    0.366215     0.007504
AU1752   AU        0.379448    0.664843    0.364176     0.007504
AU1753   AU        0.385848    0.699826    0.401314     0.007504
AU1754   AU        0.418191    0.658866    0.403244     0.007504
AU1755   AU        0.418681    0.697379    0.366848     0.007504
AU1756   AU        0.454127    0.660208    0.368334     0.007504
AU1757   AU        0.452816    0.695465    0.405101     0.007504
AU1758   AU        0.488019    0.657080    0.404850     0.007504
AU1759   AU        0.490694    0.694752    0.368963     0.007504
AU1760   AU        0.525023    0.653943    0.370098     0.007504
AU1761   AU        0.525125    0.692197    0.404388     0.007504
AU1762   AU        0.562842    0.651680    0.405877     0.007504
AU1763   AU        0.565914    0.687324    0.370639     0.007504
AU1764   AU        0.601355    0.650128    0.372635     0.007504
AU1765   AU        0.598009    0.688677    0.411055     0.007504
AU1766   AU        0.633754    0.648489    0.407447     0.007504
AU1767   AU        0.637695    0.685919    0.374035     0.007504
AU1768   AU        0.671344    0.647044    0.372907     0.007504
AU1769   AU        0.672285    0.680907    0.410180     0.007504
AU1770   AU        0.707582    0.644854    0.408403     0.007504
AU1771   AU        0.711589    0.681577    0.373659     0.007504
AU1772   AU        0.743308    0.644393    0.374233     0.007504
AU1773   AU        0.742722    0.679303    0.409752     0.007504
AU1774   AU        0.777744    0.643756    0.412317     0.007504
AU1775   AU        0.783869    0.677741    0.377799     0.007504
AU1776   AU        0.819220    0.641451    0.377781     0.007504
AU1777   AU        0.819034    0.675804    0.414593     0.007504
AU1778   AU        0.130555    0.747136    0.396861     0.007504
AU1779   AU        0.170253    0.747517    0.363472     0.007504
AU1780   AU        0.168220    0.782826    0.397591     0.007504
AU1781   AU        0.203319    0.743478    0.399795     0.007504
AU1782   AU        0.208939    0.779467    0.363128     0.007504
AU1783   AU        0.240516    0.743931    0.362371     0.007504
AU1784   AU        0.243367    0.777172    0.401843     0.007504
AU1785   AU        0.276217    0.739878    0.402451     0.007504
AU1786   AU        0.278456    0.778910    0.365416     0.007504
AU1787   AU        0.312261    0.740769    0.365423     0.007504
AU1788   AU        0.312000    0.774963    0.403098     0.007504
AU1789   AU        0.348646    0.736200    0.404108     0.007504
AU1790   AU        0.346906    0.773268    0.367675     0.007504
AU1791   AU        0.386438    0.736137    0.369716     0.007504
AU1792   AU        0.385749    0.771839    0.404729     0.007504
AU1793   AU        0.420139    0.737122    0.403510     0.007504
AU1794   AU        0.423291    0.769755    0.366458     0.007504
AU1795   AU        0.456766    0.731921    0.370759     0.007504
AU1796   AU        0.458765    0.766501    0.407229     0.007504
AU1797   AU        0.491381    0.729566    0.408367     0.007504
AU1798   AU        0.495840    0.763153    0.368491     0.007504
AU1799   AU        0.530487    0.727474    0.371298     0.007504
AU1800   AU        0.527537    0.764259    0.408987     0.007504
AU1801   AU        0.562705    0.724244    0.406202     0.007504
AU1802   AU        0.568102    0.762505    0.374874     0.007504
AU1803   AU        0.601451    0.723447    0.374770     0.007504
AU1804   AU        0.604181    0.758221    0.410518     0.007504
AU1805   AU        0.636762    0.720541    0.408335     0.007504
AU1806   AU        0.643658    0.757631    0.375553     0.007504
AU1807   AU        0.676679    0.717792    0.375124     0.007504
AU1808   AU        0.679574    0.754178    0.409402     0.007504
AU1809   AU        0.712434    0.718120    0.410029     0.007504
AU1810   AU        0.714252    0.753482    0.373818     0.007504
AU1811   AU        0.750164    0.715932    0.374961     0.007504
AU1812   AU        0.748898    0.750918    0.412452     0.007504
AU1813   AU        0.786204    0.714731    0.413955     0.007504
AU1814   AU        0.206836    0.816031    0.399288     0.007504
AU1815   AU        0.245050    0.813926    0.366136     0.007504
AU1816   AU        0.277914    0.812137    0.405502     0.007504
AU1817   AU        0.280745    0.850232    0.366121     0.007504
AU1818   AU        0.317227    0.812772    0.366706     0.007504
AU1819   AU        0.318291    0.846088    0.403833     0.007504
AU1820   AU        0.355776    0.810077    0.403760     0.007504
AU1821   AU        0.354404    0.850401    0.368594     0.007504
AU1822   AU        0.388057    0.807605    0.365810     0.007504
AU1823   AU        0.388442    0.845586    0.408646     0.007504
AU1824   AU        0.421425    0.804557    0.402400     0.007504
AU1825   AU        0.428088    0.844645    0.371890     0.007504
AU1826   AU        0.461309    0.802539    0.371567     0.007504
AU1827   AU        0.460433    0.840217    0.411109     0.007504
AU1828   AU        0.496966    0.802503    0.407454     0.007504
AU1829   AU        0.499089    0.839218    0.370142     0.007504
AU1830   AU        0.534470    0.797930    0.376132     0.007504
AU1831   AU        0.534792    0.834776    0.410800     0.007504
AU1832   AU        0.567365    0.797716    0.411814     0.007504
AU1833   AU        0.572785    0.836269    0.374686     0.007504
AU1834   AU        0.606530    0.797095    0.375892     0.007504
AU1835   AU        0.607098    0.832409    0.413432     0.007504
AU1836   AU        0.644091    0.793319    0.410562     0.007504
AU1837   AU        0.642843    0.834202    0.378175     0.007504
AU1838   AU        0.679419    0.794609    0.376103     0.007504
AU1839   AU        0.715169    0.789728    0.412038     0.007504
AU1840   AU        0.429654    0.880104    0.407353     0.007504
AU1841   AU        0.464818    0.878134    0.371908     0.007504
AU1842   AU        0.504830    0.875044    0.409614     0.007504
AU1843   AU        0.242809    0.047821    0.435419     0.007504
AU1844   AU        0.277621    0.045620    0.473496     0.007504
AU1845   AU        0.313064    0.044647    0.436966     0.007504
AU1846   AU        0.349282    0.004937    0.439940     0.007504
AU1847   AU        0.346207    0.040831    0.473789     0.007504
AU1848   AU        0.384173    0.001417    0.478263     0.007504
AU1849   AU        0.385434    0.039450    0.438976     0.007504
AU1850   AU        0.419318    0.001964    0.439993     0.007504
AU1851   AU        0.419691    0.038541    0.475861     0.007504
AU1852   AU        0.458922    0.000798    0.476767     0.007504
AU1853   AU        0.459354    0.034620    0.441970     0.007504
AU1854   AU        0.495463    0.000714    0.439782     0.007504
AU1855   AU        0.496099    0.039352    0.477615     0.007504
AU1856   AU        0.531391    0.033797    0.440281     0.007504
AU1857   AU        0.564794    0.030753    0.477593     0.007504
AU1858   AU        0.604376    0.033183    0.447086     0.007504
AU1859   AU        0.134563    0.124049    0.468206     0.007504
AU1860   AU        0.170720    0.086954    0.467767     0.007504
AU1861   AU        0.172924    0.123781    0.433553     0.007504
AU1862   AU        0.206078    0.085328    0.434514     0.007504
AU1863   AU        0.209008    0.122049    0.473522     0.007504
AU1864   AU        0.243119    0.083386    0.472705     0.007504
AU1865   AU        0.243979    0.120155    0.435740     0.007504
AU1866   AU        0.282466    0.082405    0.436075     0.007504
AU1867   AU        0.280782    0.119267    0.474870     0.007504
AU1868   AU        0.311799    0.081152    0.475028     0.007504
AU1869   AU        0.316628    0.116342    0.439811     0.007504
AU1870   AU        0.353401    0.078170    0.439603     0.007504
AU1871   AU        0.351531    0.115825    0.475337     0.007504
AU1872   AU        0.385315    0.077665    0.477379     0.007504
AU1873   AU        0.388888    0.112373    0.441891     0.007504
AU1874   AU        0.424751    0.076124    0.439024     0.007504
AU1875   AU        0.422736    0.111985    0.478059     0.007504
AU1876   AU        0.457200    0.073663    0.477722     0.007504
AU1877   AU        0.462693    0.110126    0.438798     0.007504
AU1878   AU        0.496949    0.075102    0.441368     0.007504
AU1879   AU        0.494931    0.108649    0.479483     0.007504
AU1880   AU        0.532353    0.073758    0.478966     0.007504
AU1881   AU        0.536964    0.105184    0.442206     0.007504
AU1882   AU        0.569245    0.069883    0.443927     0.007504
AU1883   AU        0.568754    0.107058    0.479924     0.007504
AU1884   AU        0.605702    0.068172    0.482214     0.007504
AU1885   AU        0.607249    0.102311    0.445211     0.007504
AU1886   AU        0.642794    0.064300    0.444284     0.007504
AU1887   AU        0.645680    0.101363    0.481753     0.007504
AU1888   AU        0.678531    0.062188    0.481612     0.007504
AU1889   AU        0.683152    0.100064    0.446533     0.007504
AU1890   AU        0.717831    0.097797    0.480838     0.007504
AU1891   AU        0.065939    0.205262    0.466270     0.007504
AU1892   AU        0.100144    0.166456    0.463200     0.007504
AU1893   AU        0.103614    0.202011    0.430380     0.007504
AU1894   AU        0.140111    0.162059    0.433142     0.007504
AU1895   AU        0.137476    0.202598    0.465185     0.007504
AU1896   AU        0.173185    0.163776    0.471767     0.007504
AU1897   AU        0.177631    0.198032    0.433907     0.007504
AU1898   AU        0.213965    0.157527    0.435926     0.007504
AU1899   AU        0.209844    0.194197    0.471612     0.007504
AU1900   AU        0.247597    0.156372    0.473757     0.007504
AU1901   AU        0.247114    0.194641    0.436639     0.007504
AU1902   AU        0.284310    0.156924    0.436093     0.007504
AU1903   AU        0.283475    0.193121    0.469908     0.007504
AU1904   AU        0.318796    0.153722    0.473659     0.007504
AU1905   AU        0.318956    0.189352    0.435130     0.007504
AU1906   AU        0.354802    0.153260    0.439939     0.007504
AU1907   AU        0.358486    0.189243    0.475299     0.007504
AU1908   AU        0.390646    0.150675    0.476191     0.007504
AU1909   AU        0.392732    0.187008    0.437490     0.007504
AU1910   AU        0.427561    0.148548    0.440849     0.007504
AU1911   AU        0.428956    0.184215    0.476018     0.007504
AU1912   AU        0.462832    0.145186    0.477152     0.007504
AU1913   AU        0.462475    0.183809    0.441101     0.007504
AU1914   AU        0.502527    0.144284    0.441792     0.007504
AU1915   AU        0.502421    0.179935    0.475521     0.007504
AU1916   AU        0.537005    0.139720    0.477596     0.007504
AU1917   AU        0.540428    0.177124    0.443867     0.007504
AU1918   AU        0.574814    0.139445    0.441808     0.007504
AU1919   AU        0.576449    0.175417    0.479569     0.007504
AU1920   AU        0.609127    0.138730    0.480506     0.007504
AU1921   AU        0.611813    0.174110    0.446012     0.007504
AU1922   AU        0.646811    0.134871    0.443065     0.007504
AU1923   AU        0.647938    0.171240    0.482981     0.007504
AU1924   AU        0.682541    0.135940    0.482267     0.007504
AU1925   AU        0.682830    0.172459    0.445251     0.007504
AU1926   AU        0.717357    0.137520    0.447952     0.007504
AU1927   AU        0.717585    0.172340    0.482954     0.007504
AU1928   AU        0.754383    0.132701    0.483734     0.007504
AU1929   AU        0.756537    0.168759    0.446643     0.007504
AU1930   AU        0.793641    0.166420    0.482931     0.007504
AU1931   AU        0.036243    0.276480    0.431814     0.007504
AU1932   AU        0.067517    0.238986    0.430771     0.007504
AU1933   AU        0.070663    0.275340    0.468452     0.007504
AU1934   AU        0.101279    0.238853    0.469688     0.007504
AU1935   AU        0.106044    0.272397    0.431536     0.007504
AU1936   AU        0.144350    0.236337    0.429999     0.007504
AU1937   AU        0.142207    0.275956    0.470239     0.007504
AU1938   AU        0.176969    0.237150    0.469499     0.007504
AU1939   AU        0.181686    0.270587    0.432468     0.007504
AU1940   AU        0.213508    0.232175    0.433265     0.007504
AU1941   AU        0.215276    0.271267    0.472229     0.007504
AU1942   AU        0.246993    0.230359    0.472216     0.007504
AU1943   AU        0.251970    0.267850    0.435135     0.007504
AU1944   AU        0.288256    0.228102    0.435894     0.007504
AU1945   AU        0.284703    0.265319    0.471729     0.007504
AU1946   AU        0.320475    0.224579    0.473776     0.007504
AU1947   AU        0.324667    0.261879    0.437543     0.007504
AU1948   AU        0.357885    0.225295    0.438165     0.007504
AU1949   AU        0.356441    0.260615    0.472598     0.007504
AU1950   AU        0.392442    0.223527    0.472414     0.007504
AU1951   AU        0.395740    0.263209    0.440712     0.007504
AU1952   AU        0.429475    0.223272    0.438423     0.007504
AU1953   AU        0.432994    0.257528    0.476163     0.007504
AU1954   AU        0.468302    0.219781    0.476422     0.007504
AU1955   AU        0.469902    0.255776    0.440652     0.007504
AU1956   AU        0.503339    0.216999    0.442278     0.007504
AU1957   AU        0.505637    0.253324    0.475362     0.007504
AU1958   AU        0.540043    0.216326    0.479568     0.007504
AU1959   AU        0.542784    0.254558    0.442205     0.007504
AU1960   AU        0.577390    0.210736    0.445745     0.007504
AU1961   AU        0.578391    0.250813    0.478825     0.007504
AU1962   AU        0.613942    0.211637    0.477494     0.007504
AU1963   AU        0.614832    0.247086    0.443136     0.007504
AU1964   AU        0.648923    0.210704    0.442884     0.007504
AU1965   AU        0.650944    0.248177    0.480518     0.007504
AU1966   AU        0.682845    0.207424    0.480120     0.007504
AU1967   AU        0.686960    0.245543    0.449244     0.007504
AU1968   AU        0.722637    0.205480    0.451241     0.007504
AU1969   AU        0.727700    0.248362    0.481817     0.007504
AU1970   AU        0.757658    0.206001    0.484440     0.007504
AU1971   AU        0.759818    0.243115    0.447254     0.007504
AU1972   AU        0.796615    0.206616    0.451409     0.007504
AU1973   AU        0.794630    0.242860    0.486705     0.007504
AU1974   AU        0.833465    0.240800    0.451825     0.007504
AU1975   AU        0.033043    0.314271    0.466112     0.007504
AU1976   AU        0.036367    0.352302    0.430700     0.007504
AU1977   AU        0.074046    0.313839    0.430300     0.007504
AU1978   AU        0.071603    0.347003    0.467117     0.007504
AU1979   AU        0.108177    0.312075    0.469137     0.007504
AU1980   AU        0.108483    0.348440    0.432050     0.007504
AU1981   AU        0.143033    0.309086    0.432441     0.007504
AU1982   AU        0.146260    0.343701    0.466817     0.007504
AU1983   AU        0.179040    0.306041    0.472789     0.007504
AU1984   AU        0.181696    0.344884    0.433042     0.007504
AU1985   AU        0.213777    0.307991    0.435508     0.007504
AU1986   AU        0.216472    0.339737    0.469720     0.007504
AU1987   AU        0.252518    0.302829    0.468237     0.007504
AU1988   AU        0.257272    0.339581    0.435520     0.007504
AU1989   AU        0.290878    0.303963    0.434570     0.007504
AU1990   AU        0.292773    0.335697    0.470332     0.007504
AU1991   AU        0.324097    0.297562    0.472094     0.007504
AU1992   AU        0.327610    0.336891    0.437535     0.007504
AU1993   AU        0.360797    0.302481    0.438680     0.007504
AU1994   AU        0.364009    0.334479    0.474301     0.007504
AU1995   AU        0.397122    0.298905    0.475659     0.007504
AU1996   AU        0.399624    0.334613    0.438771     0.007504
AU1997   AU        0.435169    0.295978    0.441581     0.007504
AU1998   AU        0.436321    0.330934    0.479322     0.007504
AU1999   AU        0.469802    0.294319    0.475592     0.007504
AU2000   AU        0.472465    0.329499    0.441142     0.007504
AU2001   AU        0.506428    0.289095    0.441361     0.007504
AU2002   AU        0.508660    0.326243    0.479308     0.007504
AU2003   AU        0.545803    0.287391    0.477292     0.007504
AU2004   AU        0.545078    0.323154    0.443298     0.007504
AU2005   AU        0.580538    0.288373    0.442843     0.007504
AU2006   AU        0.581577    0.322145    0.478727     0.007504
AU2007   AU        0.617081    0.286555    0.477707     0.007504
AU2008   AU        0.620317    0.320860    0.441925     0.007504
AU2009   AU        0.654744    0.286307    0.444787     0.007504
AU2010   AU        0.652160    0.320584    0.482240     0.007504
AU2011   AU        0.687427    0.282914    0.483725     0.007504
AU2012   AU        0.690995    0.320025    0.446847     0.007504
AU2013   AU        0.727259    0.283548    0.445749     0.007504
AU2014   AU        0.727740    0.319282    0.482188     0.007504
AU2015   AU        0.762929    0.282881    0.483378     0.007504
AU2016   AU        0.762960    0.316799    0.447411     0.007504
AU2017   AU        0.799696    0.279304    0.448992     0.007504
AU2018   AU        0.799900    0.313892    0.483191     0.007504
AU2019   AU        0.835266    0.275715    0.486156     0.007504
AU2020   AU        0.837885    0.313289    0.450010     0.007504
AU2021   AU        0.000714    0.388362    0.430925     0.007504
AU2022   AU        0.004277    0.427775    0.464573     0.007504
AU2023   AU        0.041052    0.387932    0.466367     0.007504
AU2024   AU        0.042475    0.424033    0.431762     0.007504
AU2025   AU        0.074893    0.387630    0.431092     0.007504
AU2026   AU        0.080045    0.419588    0.467536     0.007504
AU2027   AU        0.112093    0.383970    0.470175     0.007504
AU2028   AU        0.113802    0.422221    0.431740     0.007504
AU2029   AU        0.148349    0.382904    0.432390     0.007504
AU2030   AU        0.148923    0.418807    0.467688     0.007504
AU2031   AU        0.181796    0.381403    0.470123     0.007504
AU2032   AU        0.188719    0.417011    0.436041     0.007504
AU2033   AU        0.218451    0.377826    0.436888     0.007504
AU2034   AU        0.221275    0.415344    0.470635     0.007504
AU2035   AU        0.257095    0.376792    0.471085     0.007504
AU2036   AU        0.258146    0.411136    0.436297     0.007504
AU2037   AU        0.294678    0.375349    0.436849     0.007504
AU2038   AU        0.295465    0.411767    0.474597     0.007504
AU2039   AU        0.326462    0.372640    0.474183     0.007504
AU2040   AU        0.332780    0.410657    0.440098     0.007504
AU2041   AU        0.363564    0.371992    0.438329     0.007504
AU2042   AU        0.366614    0.406153    0.476835     0.007504
AU2043   AU        0.400748    0.368086    0.476676     0.007504
AU2044   AU        0.403137    0.405949    0.440279     0.007504
AU2045   AU        0.437727    0.366369    0.440330     0.007504
AU2046   AU        0.441715    0.403210    0.475716     0.007504
AU2047   AU        0.476105    0.365433    0.478812     0.007504
AU2048   AU        0.479835    0.400693    0.443442     0.007504
AU2049   AU        0.510738    0.359913    0.440119     0.007504
AU2050   AU        0.514177    0.398975    0.478329     0.007504
AU2051   AU        0.548030    0.358478    0.478984     0.007504
AU2052   AU        0.549233    0.396531    0.443390     0.007504
AU2053   AU        0.586177    0.355781    0.443344     0.007504
AU2054   AU        0.585604    0.393266    0.480757     0.007504
AU2055   AU        0.621428    0.358238    0.479146     0.007504
AU2056   AU        0.620310    0.396033    0.443530     0.007504
AU2057   AU        0.655015    0.356247    0.446132     0.007504
AU2058   AU        0.659205    0.391443    0.483876     0.007504
AU2059   AU        0.693176    0.357844    0.484612     0.007504
AU2060   AU        0.693693    0.391485    0.446444     0.007504
AU2061   AU        0.729117    0.353679    0.446312     0.007504
AU2062   AU        0.731328    0.388885    0.484386     0.007504
AU2063   AU        0.770337    0.353040    0.483849     0.007504
AU2064   AU        0.768418    0.388365    0.448197     0.007504
AU2065   AU        0.801362    0.350644    0.448822     0.007504
AU2066   AU        0.805056    0.387072    0.486915     0.007504
AU2067   AU        0.838179    0.348736    0.485365     0.007504
AU2068   AU        0.838554    0.384126    0.449986     0.007504
AU2069   AU        0.877604    0.344034    0.450075     0.007504
AU2070   AU        0.876724    0.383249    0.485521     0.007504
AU2071   AU        0.007596    0.461212    0.428269     0.007504
AU2072   AU        0.007039    0.500129    0.462149     0.007504
AU2073   AU        0.044958    0.460794    0.465404     0.007504
AU2074   AU        0.043812    0.495637    0.431039     0.007504
AU2075   AU        0.079412    0.457559    0.429969     0.007504
AU2076   AU        0.079986    0.496916    0.466937     0.007504
AU2077   AU        0.112748    0.456661    0.467824     0.007504
AU2078   AU        0.117670    0.495323    0.433813     0.007504
AU2079   AU        0.151677    0.456033    0.434107     0.007504
AU2080   AU        0.151103    0.493859    0.468322     0.007504
AU2081   AU        0.187982    0.455767    0.470513     0.007504
AU2082   AU        0.190699    0.488083    0.433344     0.007504
AU2083   AU        0.224351    0.451292    0.435688     0.007504
AU2084   AU        0.225525    0.489614    0.471455     0.007504
AU2085   AU        0.260087    0.449112    0.472132     0.007504
AU2086   AU        0.260607    0.485647    0.435921     0.007504
AU2087   AU        0.297207    0.446218    0.438971     0.007504
AU2088   AU        0.297363    0.484427    0.470286     0.007504
AU2089   AU        0.330224    0.443851    0.476970     0.007504
AU2090   AU        0.335366    0.480472    0.437540     0.007504
AU2091   AU        0.365978    0.445677    0.439701     0.007504
AU2092   AU        0.369122    0.480735    0.476426     0.007504
AU2093   AU        0.405690    0.439325    0.478689     0.007504
AU2094   AU        0.405206    0.476410    0.441362     0.007504
AU2095   AU        0.442386    0.437590    0.443007     0.007504
AU2096   AU        0.443949    0.474557    0.477676     0.007504
AU2097   AU        0.480570    0.435543    0.478055     0.007504
AU2098   AU        0.480797    0.472873    0.440691     0.007504
AU2099   AU        0.517021    0.434806    0.441906     0.007504
AU2100   AU        0.516981    0.470898    0.480669     0.007504
AU2101   AU        0.550544    0.434380    0.478280     0.007504
AU2102   AU        0.554462    0.470951    0.442799     0.007504
AU2103   AU        0.585873    0.432309    0.443405     0.007504
AU2104   AU        0.588090    0.466154    0.478736     0.007504
AU2105   AU        0.622124    0.428975    0.481313     0.007504
AU2106   AU        0.626646    0.465592    0.445740     0.007504
AU2107   AU        0.659855    0.429366    0.444607     0.007504
AU2108   AU        0.661053    0.464502    0.484851     0.007504
AU2109   AU        0.695496    0.428438    0.483962     0.007504
AU2110   AU        0.697480    0.462611    0.445699     0.007504
AU2111   AU        0.733062    0.427270    0.445885     0.007504
AU2112   AU        0.732806    0.462563    0.485484     0.007504
AU2113   AU        0.768050    0.424703    0.484988     0.007504
AU2114   AU        0.771789    0.459775    0.446614     0.007504
AU2115   AU        0.807138    0.419962    0.448008     0.007504
AU2116   AU        0.804007    0.459916    0.483356     0.007504
AU2117   AU        0.840538    0.420137    0.486037     0.007504
AU2118   AU        0.840835    0.457187    0.449944     0.007504
AU2119   AU        0.874830    0.419229    0.448742     0.007504
AU2120   AU        0.876349    0.456902    0.483456     0.007504
AU2121   AU        0.008302    0.537043    0.427894     0.007504
AU2122   AU        0.043624    0.535575    0.465248     0.007504
AU2123   AU        0.048233    0.570414    0.429056     0.007504
AU2124   AU        0.079136    0.531023    0.430749     0.007504
AU2125   AU        0.082070    0.565417    0.465860     0.007504
AU2126   AU        0.119640    0.532135    0.466114     0.007504
AU2127   AU        0.122136    0.568305    0.432195     0.007504
AU2128   AU        0.154488    0.528611    0.433520     0.007504
AU2129   AU        0.158793    0.564587    0.469298     0.007504
AU2130   AU        0.189411    0.527681    0.470782     0.007504
AU2131   AU        0.193756    0.562012    0.431626     0.007504
AU2132   AU        0.226489    0.525923    0.434497     0.007504
AU2133   AU        0.228430    0.560926    0.470913     0.007504
AU2134   AU        0.264667    0.523703    0.472299     0.007504
AU2135   AU        0.265900    0.560332    0.436150     0.007504
AU2136   AU        0.300732    0.521987    0.437788     0.007504
AU2137   AU        0.302557    0.557554    0.474100     0.007504
AU2138   AU        0.334458    0.517317    0.472378     0.007504
AU2139   AU        0.340077    0.553987    0.434853     0.007504
AU2140   AU        0.374085    0.514175    0.439266     0.007504
AU2141   AU        0.373269    0.551761    0.474259     0.007504
AU2142   AU        0.408826    0.512119    0.475303     0.007504
AU2143   AU        0.411695    0.549084    0.440648     0.007504
AU2144   AU        0.444176    0.512173    0.437494     0.007504
AU2145   AU        0.445461    0.547206    0.477804     0.007504
AU2146   AU        0.480141    0.509800    0.477219     0.007504
AU2147   AU        0.483902    0.544139    0.440040     0.007504
AU2148   AU        0.517840    0.506775    0.443592     0.007504
AU2149   AU        0.519887    0.544026    0.477408     0.007504
AU2150   AU        0.555371    0.505483    0.478950     0.007504
AU2151   AU        0.556229    0.541300    0.442407     0.007504
AU2152   AU        0.591121    0.506003    0.444048     0.007504
AU2153   AU        0.593018    0.541033    0.479289     0.007504
AU2154   AU        0.626906    0.503468    0.479571     0.007504
AU2155   AU        0.631459    0.539417    0.445667     0.007504
AU2156   AU        0.665321    0.503841    0.446819     0.007504
AU2157   AU        0.664929    0.536397    0.486132     0.007504
AU2158   AU        0.700858    0.500255    0.483965     0.007504
AU2159   AU        0.701820    0.539672    0.448522     0.007504
AU2160   AU        0.736067    0.496051    0.447424     0.007504
AU2161   AU        0.737485    0.532387    0.483475     0.007504
AU2162   AU        0.770686    0.498320    0.484889     0.007504
AU2163   AU        0.771540    0.530966    0.447949     0.007504
AU2164   AU        0.808439    0.495979    0.446032     0.007504
AU2165   AU        0.807017    0.532685    0.486663     0.007504
AU2166   AU        0.842881    0.494577    0.483893     0.007504
AU2167   AU        0.841892    0.529768    0.449939     0.007504
AU2168   AU        0.879607    0.494963    0.449401     0.007504
AU2169   AU        0.047913    0.605982    0.464193     0.007504
AU2170   AU        0.049903    0.642841    0.430133     0.007504
AU2171   AU        0.084193    0.604417    0.428207     0.007504
AU2172   AU        0.086746    0.641176    0.465922     0.007504
AU2173   AU        0.123449    0.602574    0.464941     0.007504
AU2174   AU        0.125912    0.639584    0.430412     0.007504
AU2175   AU        0.162772    0.598830    0.429013     0.007504
AU2176   AU        0.160508    0.635440    0.464191     0.007504
AU2177   AU        0.194066    0.598494    0.470130     0.007504
AU2178   AU        0.197399    0.635758    0.433514     0.007504
AU2179   AU        0.233575    0.597457    0.437544     0.007504
AU2180   AU        0.232812    0.631519    0.470505     0.007504
AU2181   AU        0.268809    0.593349    0.471754     0.007504
AU2182   AU        0.269030    0.632255    0.433979     0.007504
AU2183   AU        0.306381    0.595293    0.438007     0.007504
AU2184   AU        0.303325    0.628096    0.472554     0.007504
AU2185   AU        0.339350    0.589604    0.476431     0.007504
AU2186   AU        0.343396    0.626813    0.438856     0.007504
AU2187   AU        0.377431    0.587733    0.437356     0.007504
AU2188   AU        0.377364    0.621470    0.473469     0.007504
AU2189   AU        0.414653    0.586957    0.472060     0.007504
AU2190   AU        0.414982    0.625239    0.439107     0.007504
AU2191   AU        0.451121    0.582489    0.438492     0.007504
AU2192   AU        0.451548    0.621242    0.476004     0.007504
AU2193   AU        0.484600    0.585584    0.476364     0.007504
AU2194   AU        0.487032    0.619486    0.439641     0.007504
AU2195   AU        0.519367    0.582024    0.443802     0.007504
AU2196   AU        0.522710    0.619082    0.476548     0.007504
AU2197   AU        0.558497    0.577807    0.479143     0.007504
AU2198   AU        0.558160    0.615607    0.442734     0.007504
AU2199   AU        0.592607    0.577439    0.443135     0.007504
AU2200   AU        0.592956    0.611797    0.479292     0.007504
AU2201   AU        0.631709    0.575072    0.480037     0.007504
AU2202   AU        0.633311    0.614264    0.444578     0.007504
AU2203   AU        0.666380    0.576051    0.445593     0.007504
AU2204   AU        0.666992    0.612292    0.483002     0.007504
AU2205   AU        0.701626    0.574004    0.481969     0.007504
AU2206   AU        0.705989    0.611458    0.446614     0.007504
AU2207   AU        0.740529    0.573616    0.447429     0.007504
AU2208   AU        0.742920    0.606455    0.484340     0.007504
AU2209   AU        0.773340    0.568432    0.483947     0.007504
AU2210   AU        0.777977    0.607436    0.448248     0.007504
AU2211   AU        0.809387    0.566389    0.446856     0.007504
AU2212   AU        0.812068    0.602776    0.485503     0.007504
AU2213   AU        0.847160    0.563439    0.487565     0.007504
AU2214   AU        0.849013    0.602215    0.448409     0.007504
AU2215   AU        0.089091    0.679758    0.427977     0.007504
AU2216   AU        0.091758    0.714697    0.466646     0.007504
AU2217   AU        0.125281    0.674702    0.467541     0.007504
AU2218   AU        0.128221    0.712487    0.431707     0.007504
AU2219   AU        0.160450    0.675367    0.434684     0.007504
AU2220   AU        0.163738    0.708415    0.469683     0.007504
AU2221   AU        0.197050    0.671742    0.471673     0.007504
AU2222   AU        0.200288    0.707608    0.434434     0.007504
AU2223   AU        0.236589    0.668796    0.433517     0.007504
AU2224   AU        0.234056    0.705636    0.471293     0.007504
AU2225   AU        0.270680    0.664615    0.472170     0.007504
AU2226   AU        0.275069    0.702187    0.435142     0.007504
AU2227   AU        0.305656    0.662855    0.436881     0.007504
AU2228   AU        0.309958    0.700121    0.470933     0.007504
AU2229   AU        0.343159    0.660506    0.473734     0.007504
AU2230   AU        0.350430    0.701072    0.436646     0.007504
AU2231   AU        0.380569    0.662251    0.437368     0.007504
AU2232   AU        0.381844    0.696685    0.476855     0.007504
AU2233   AU        0.415438    0.656761    0.477553     0.007504
AU2234   AU        0.418019    0.696585    0.438651     0.007504
AU2235   AU        0.452854    0.659223    0.441528     0.007504
AU2236   AU        0.451157    0.695175    0.476672     0.007504
AU2237   AU        0.486564    0.657588    0.477568     0.007504
AU2238   AU        0.489502    0.693013    0.442353     0.007504
AU2239   AU        0.524502    0.655617    0.441413     0.007504
AU2240   AU        0.523846    0.689895    0.479909     0.007504
AU2241   AU        0.562277    0.653204    0.479180     0.007504
AU2242   AU        0.561771    0.687079    0.444016     0.007504
AU2243   AU        0.598693    0.650447    0.444060     0.007504
AU2244   AU        0.596952    0.687742    0.484385     0.007504
AU2245   AU        0.633106    0.649522    0.480620     0.007504
AU2246   AU        0.637773    0.684221    0.446306     0.007504
AU2247   AU        0.672274    0.647396    0.445054     0.007504
AU2248   AU        0.673516    0.682992    0.484092     0.007504
AU2249   AU        0.706504    0.644365    0.483209     0.007504
AU2250   AU        0.707810    0.682908    0.444464     0.007504
AU2251   AU        0.740477    0.645350    0.446118     0.007504
AU2252   AU        0.743591    0.679511    0.484402     0.007504
AU2253   AU        0.779008    0.641385    0.485681     0.007504
AU2254   AU        0.780519    0.678286    0.448061     0.007504
AU2255   AU        0.814352    0.640064    0.448079     0.007504
AU2256   AU        0.818349    0.674111    0.491455     0.007504
AU2257   AU        0.131644    0.748018    0.467171     0.007504
AU2258   AU        0.168003    0.745510    0.435833     0.007504
AU2259   AU        0.168709    0.782573    0.472757     0.007504
AU2260   AU        0.202583    0.743599    0.473013     0.007504
AU2261   AU        0.204988    0.779305    0.435070     0.007504
AU2262   AU        0.238860    0.739949    0.436559     0.007504
AU2263   AU        0.238771    0.777740    0.472110     0.007504
AU2264   AU        0.273381    0.736475    0.471492     0.007504
AU2265   AU        0.276581    0.774037    0.439730     0.007504
AU2266   AU        0.313663    0.739342    0.438128     0.007504
AU2267   AU        0.311993    0.770768    0.478356     0.007504
AU2268   AU        0.347199    0.735444    0.475814     0.007504
AU2269   AU        0.350550    0.775037    0.441338     0.007504
AU2270   AU        0.384687    0.735610    0.441661     0.007504
AU2271   AU        0.388411    0.770071    0.479269     0.007504
AU2272   AU        0.419281    0.733909    0.476937     0.007504
AU2273   AU        0.422667    0.772168    0.440320     0.007504
AU2274   AU        0.452399    0.730687    0.440880     0.007504
AU2275   AU        0.456352    0.768505    0.479464     0.007504
AU2276   AU        0.487819    0.728764    0.475845     0.007504
AU2277   AU        0.491564    0.765679    0.442879     0.007504
AU2278   AU        0.528720    0.725223    0.445815     0.007504
AU2279   AU        0.530098    0.761787    0.479418     0.007504
AU2280   AU        0.563500    0.722222    0.479852     0.007504
AU2281   AU        0.566554    0.760835    0.442921     0.007504
AU2282   AU        0.600420    0.720389    0.445356     0.007504
AU2283   AU        0.604293    0.755820    0.481596     0.007504
AU2284   AU        0.637137    0.719743    0.481684     0.007504
AU2285   AU        0.640234    0.754663    0.444206     0.007504
AU2286   AU        0.674412    0.718049    0.445606     0.007504
AU2287   AU        0.676006    0.754083    0.480918     0.007504
AU2288   AU        0.710375    0.716448    0.484036     0.007504
AU2289   AU        0.712603    0.750375    0.445661     0.007504
AU2290   AU        0.748035    0.714870    0.448343     0.007504
AU2291   AU        0.747680    0.749423    0.482121     0.007504
AU2292   AU        0.784609    0.711566    0.487029     0.007504
AU2293   AU        0.206227    0.815264    0.474366     0.007504
AU2294   AU        0.242493    0.816490    0.438036     0.007504
AU2295   AU        0.276739    0.810768    0.472436     0.007504
AU2296   AU        0.279776    0.850625    0.439231     0.007504
AU2297   AU        0.314991    0.809686    0.442758     0.007504
AU2298   AU        0.315062    0.848553    0.478022     0.007504
AU2299   AU        0.349388    0.807256    0.479222     0.007504
AU2300   AU        0.352848    0.843448    0.442903     0.007504
AU2301   AU        0.388554    0.807802    0.444697     0.007504
AU2302   AU        0.387724    0.847565    0.479511     0.007504
AU2303   AU        0.424203    0.805814    0.482759     0.007504
AU2304   AU        0.426512    0.842752    0.444906     0.007504
AU2305   AU        0.461808    0.805463    0.442254     0.007504
AU2306   AU        0.460935    0.840647    0.483434     0.007504
AU2307   AU        0.493817    0.800347    0.480479     0.007504
AU2308   AU        0.501470    0.837127    0.447028     0.007504
AU2309   AU        0.530577    0.798106    0.445274     0.007504
AU2310   AU        0.537372    0.834031    0.482116     0.007504
AU2311   AU        0.569872    0.794749    0.482680     0.007504
AU2312   AU        0.573050    0.832515    0.449275     0.007504
AU2313   AU        0.605693    0.794401    0.447321     0.007504
AU2314   AU        0.609020    0.833653    0.483634     0.007504
AU2315   AU        0.643468    0.794998    0.483012     0.007504
AU2316   AU        0.646936    0.832191    0.447613     0.007504
AU2317   AU        0.677836    0.788444    0.446720     0.007504
AU2318   AU        0.715175    0.788869    0.482798     0.007504
AU2319   AU        0.392553    0.880954    0.441815     0.007504
AU2320   AU        0.429103    0.880961    0.480708     0.007504
AU2321   AU        0.465665    0.876095    0.444297     0.007504
AU2322   AU        0.499575    0.875037    0.482715     0.007504
AU2323   AU        0.536899    0.872180    0.447966     0.007504
AU2324   AU        0.239404    0.047853    0.510131     0.007504
AU2325   AU        0.272638    0.045628    0.547378     0.007504
AU2326   AU        0.310501    0.044168    0.511358     0.007504
AU2327   AU        0.350288    0.041081    0.545036     0.007504
AU2328   AU        0.382952    0.039840    0.509862     0.007504
AU2329   AU        0.421742    0.002818    0.512590     0.007504
AU2330   AU        0.420095    0.041835    0.549056     0.007504
AU2331   AU        0.457486    0.039343    0.512783     0.007504
AU2332   AU        0.491755    0.038135    0.550285     0.007504
AU2333   AU        0.528454    0.032584    0.516805     0.007504
AU2334   AU        0.565580    0.032528    0.551545     0.007504
AU2335   AU        0.600473    0.030025    0.515174     0.007504
AU2336   AU        0.169908    0.125880    0.505125     0.007504
AU2337   AU        0.202780    0.084063    0.508253     0.007504
AU2338   AU        0.203451    0.122464    0.543001     0.007504
AU2339   AU        0.239156    0.084527    0.546870     0.007504
AU2340   AU        0.241984    0.118978    0.508397     0.007504
AU2341   AU        0.278053    0.081687    0.513288     0.007504
AU2342   AU        0.277565    0.120679    0.546325     0.007504
AU2343   AU        0.311023    0.081674    0.546958     0.007504
AU2344   AU        0.315970    0.119804    0.511423     0.007504
AU2345   AU        0.349040    0.079927    0.511919     0.007504
AU2346   AU        0.352357    0.118801    0.547582     0.007504
AU2347   AU        0.383996    0.078825    0.548917     0.007504
AU2348   AU        0.387848    0.115916    0.512566     0.007504
AU2349   AU        0.420745    0.075708    0.515320     0.007504
AU2350   AU        0.421821    0.112864    0.550798     0.007504
AU2351   AU        0.457370    0.075317    0.550501     0.007504
AU2352   AU        0.458248    0.109475    0.514791     0.007504
AU2353   AU        0.496171    0.073329    0.515890     0.007504
AU2354   AU        0.495602    0.110858    0.550189     0.007504
AU2355   AU        0.531949    0.069896    0.553232     0.007504
AU2356   AU        0.533815    0.106218    0.518162     0.007504
AU2357   AU        0.568280    0.066450    0.514503     0.007504
AU2358   AU        0.568275    0.102669    0.551931     0.007504
AU2359   AU        0.602659    0.065362    0.554113     0.007504
AU2360   AU        0.607757    0.103693    0.518672     0.007504
AU2361   AU        0.642481    0.066682    0.518579     0.007504
AU2362   AU        0.643042    0.100783    0.556827     0.007504
AU2363   AU        0.681249    0.098983    0.517454     0.007504
AU2364   AU        0.099809    0.202410    0.502074     0.007504
AU2365   AU        0.132736    0.164574    0.499076     0.007504
AU2366   AU        0.130729    0.202485    0.541583     0.007504
AU2367   AU        0.165433    0.160436    0.540176     0.007504
AU2368   AU        0.173226    0.197858    0.506587     0.007504
AU2369   AU        0.206429    0.159409    0.507225     0.007504
AU2370   AU        0.211034    0.193111    0.543856     0.007504
AU2371   AU        0.243541    0.157014    0.544212     0.007504
AU2372   AU        0.246344    0.192569    0.506550     0.007504
AU2373   AU        0.280109    0.154842    0.510658     0.007504
AU2374   AU        0.282745    0.194014    0.546884     0.007504
AU2375   AU        0.315738    0.156921    0.550082     0.007504
AU2376   AU        0.318567    0.188712    0.509899     0.007504
AU2377   AU        0.356561    0.155016    0.510930     0.007504
AU2378   AU        0.353806    0.189602    0.546659     0.007504
AU2379   AU        0.389339    0.154063    0.548096     0.007504
AU2380   AU        0.391472    0.190428    0.513628     0.007504
AU2381   AU        0.425138    0.153483    0.513669     0.007504
AU2382   AU        0.426230    0.188243    0.547696     0.007504
AU2383   AU        0.459720    0.148732    0.548709     0.007504
AU2384   AU        0.466206    0.182924    0.516495     0.007504
AU2385   AU        0.496529    0.144070    0.513261     0.007504
AU2386   AU        0.500856    0.180992    0.548507     0.007504
AU2387   AU        0.534841    0.144157    0.548488     0.007504
AU2388   AU        0.534755    0.179706    0.513215     0.007504
AU2389   AU        0.572787    0.139628    0.515167     0.007504
AU2390   AU        0.574017    0.180395    0.552546     0.007504
AU2391   AU        0.607391    0.141150    0.554820     0.007504
AU2392   AU        0.609660    0.175854    0.516789     0.007504
AU2393   AU        0.646841    0.135137    0.518810     0.007504
AU2394   AU        0.645473    0.174029    0.554377     0.007504
AU2395   AU        0.679498    0.135890    0.555451     0.007504
AU2396   AU        0.684401    0.172114    0.519656     0.007504
AU2397   AU        0.718299    0.134333    0.521476     0.007504
AU2398   AU        0.717713    0.173583    0.555103     0.007504
AU2399   AU        0.756546    0.169648    0.518830     0.007504
AU2400   AU        0.032228    0.278875    0.506013     0.007504
AU2401   AU        0.064181    0.241526    0.504845     0.007504
AU2402   AU        0.068950    0.274717    0.542660     0.007504
AU2403   AU        0.101110    0.239188    0.540336     0.007504
AU2404   AU        0.104108    0.275117    0.506049     0.007504
AU2405   AU        0.139351    0.237003    0.505447     0.007504
AU2406   AU        0.139173    0.271802    0.543041     0.007504
AU2407   AU        0.171964    0.232626    0.546150     0.007504
AU2408   AU        0.177500    0.268822    0.508278     0.007504
AU2409   AU        0.211990    0.228790    0.507474     0.007504
AU2410   AU        0.214051    0.269776    0.543037     0.007504
AU2411   AU        0.246393    0.229138    0.541621     0.007504
AU2412   AU        0.249537    0.267325    0.507339     0.007504
AU2413   AU        0.284981    0.228218    0.505844     0.007504
AU2414   AU        0.283141    0.263788    0.545101     0.007504
AU2415   AU        0.317939    0.228092    0.545032     0.007504
AU2416   AU        0.320108    0.264424    0.508147     0.007504
AU2417   AU        0.356346    0.226385    0.508687     0.007504
AU2418   AU        0.356828    0.262449    0.545702     0.007504
AU2419   AU        0.393540    0.223408    0.547665     0.007504
AU2420   AU        0.395321    0.259141    0.508828     0.007504
AU2421   AU        0.431311    0.222242    0.511536     0.007504
AU2422   AU        0.430166    0.256909    0.548896     0.007504
AU2423   AU        0.466426    0.221397    0.549712     0.007504
AU2424   AU        0.471055    0.257049    0.512855     0.007504
AU2425   AU        0.501836    0.218201    0.513142     0.007504
AU2426   AU        0.504316    0.255689    0.548484     0.007504
AU2427   AU        0.538544    0.216407    0.549451     0.007504
AU2428   AU        0.541873    0.250699    0.513929     0.007504
AU2429   AU        0.575899    0.213990    0.513283     0.007504
AU2430   AU        0.576987    0.252763    0.552252     0.007504
AU2431   AU        0.611777    0.215000    0.552779     0.007504
AU2432   AU        0.614672    0.249972    0.514930     0.007504
AU2433   AU        0.647025    0.208829    0.517455     0.007504
AU2434   AU        0.650949    0.248818    0.552234     0.007504
AU2435   AU        0.683809    0.208750    0.554520     0.007504
AU2436   AU        0.688432    0.246074    0.515447     0.007504
AU2437   AU        0.718736    0.208834    0.515435     0.007504
AU2438   AU        0.722119    0.244635    0.554673     0.007504
AU2439   AU        0.755765    0.208560    0.557398     0.007504
AU2440   AU        0.759637    0.244216    0.520605     0.007504
AU2441   AU        0.793698    0.205514    0.519353     0.007504
AU2442   AU        0.795069    0.240964    0.555608     0.007504
AU2443   AU        0.832818    0.239847    0.521696     0.007504
AU2444   AU        0.032341    0.318197    0.539718     0.007504
AU2445   AU        0.034097    0.351670    0.503369     0.007504
AU2446   AU        0.068668    0.313695    0.503769     0.007504
AU2447   AU        0.072727    0.350814    0.538796     0.007504
AU2448   AU        0.104400    0.309267    0.540932     0.007504
AU2449   AU        0.110870    0.348510    0.503672     0.007504
AU2450   AU        0.142034    0.308467    0.506488     0.007504
AU2451   AU        0.143445    0.347038    0.542829     0.007504
AU2452   AU        0.176561    0.307175    0.543042     0.007504
AU2453   AU        0.179191    0.342109    0.505245     0.007504
AU2454   AU        0.214433    0.305580    0.506129     0.007504
AU2455   AU        0.214102    0.340960    0.540660     0.007504
AU2456   AU        0.250786    0.302752    0.541311     0.007504
AU2457   AU        0.252744    0.340033    0.505192     0.007504
AU2458   AU        0.286362    0.303211    0.507641     0.007504
AU2459   AU        0.290773    0.336310    0.546277     0.007504
AU2460   AU        0.321334    0.299823    0.545899     0.007504
AU2461   AU        0.323102    0.338559    0.510083     0.007504
AU2462   AU        0.358567    0.299453    0.508697     0.007504
AU2463   AU        0.363150    0.335644    0.547942     0.007504
AU2464   AU        0.398426    0.293764    0.547916     0.007504
AU2465   AU        0.400955    0.330896    0.515101     0.007504
AU2466   AU        0.434551    0.292585    0.512321     0.007504
AU2467   AU        0.436607    0.330193    0.547254     0.007504
AU2468   AU        0.469159    0.294241    0.550034     0.007504
AU2469   AU        0.471276    0.327400    0.514457     0.007504
AU2470   AU        0.508304    0.289574    0.509944     0.007504
AU2471   AU        0.507273    0.326951    0.553370     0.007504
AU2472   AU        0.540258    0.290591    0.552335     0.007504
AU2473   AU        0.544037    0.322455    0.516093     0.007504
AU2474   AU        0.580296    0.286813    0.513435     0.007504
AU2475   AU        0.578845    0.324338    0.551372     0.007504
AU2476   AU        0.614643    0.282731    0.554295     0.007504
AU2477   AU        0.615075    0.319933    0.514635     0.007504
AU2478   AU        0.651910    0.284570    0.515471     0.007504
AU2479   AU        0.654361    0.321310    0.554346     0.007504
AU2480   AU        0.689133    0.283612    0.554785     0.007504
AU2481   AU        0.688781    0.318394    0.516965     0.007504
AU2482   AU        0.727881    0.282959    0.518529     0.007504
AU2483   AU        0.727072    0.317956    0.558835     0.007504
AU2484   AU        0.763125    0.280506    0.556526     0.007504
AU2485   AU        0.762900    0.319225    0.521302     0.007504
AU2486   AU        0.798944    0.280085    0.521248     0.007504
AU2487   AU        0.800437    0.312720    0.557625     0.007504
AU2488   AU        0.833015    0.275636    0.557423     0.007504
AU2489   AU        0.836344    0.312998    0.523097     0.007504
AU2490   AU        0.038343    0.389071    0.538140     0.007504
AU2491   AU        0.041345    0.424023    0.500640     0.007504
AU2492   AU        0.073886    0.383997    0.503902     0.007504
AU2493   AU        0.075354    0.422413    0.540658     0.007504
AU2494   AU        0.111822    0.387477    0.540559     0.007504
AU2495   AU        0.112495    0.423192    0.505118     0.007504
AU2496   AU        0.148875    0.383934    0.505468     0.007504
AU2497   AU        0.148650    0.421256    0.540630     0.007504
AU2498   AU        0.182741    0.381025    0.541099     0.007504
AU2499   AU        0.181921    0.420591    0.506647     0.007504
AU2500   AU        0.218265    0.376365    0.506334     0.007504
AU2501   AU        0.220896    0.413664    0.543105     0.007504
AU2502   AU        0.255694    0.375079    0.542596     0.007504
AU2503   AU        0.255967    0.412310    0.507469     0.007504
AU2504   AU        0.291857    0.373951    0.507874     0.007504
AU2505   AU        0.290953    0.412640    0.548972     0.007504
AU2506   AU        0.326880    0.372984    0.547439     0.007504
AU2507   AU        0.326519    0.407630    0.512199     0.007504
AU2508   AU        0.363564    0.370254    0.510447     0.007504
AU2509   AU        0.364385    0.408288    0.548508     0.007504
AU2510   AU        0.400590    0.369079    0.547290     0.007504
AU2511   AU        0.401249    0.403406    0.514829     0.007504
AU2512   AU        0.437760    0.365991    0.513777     0.007504
AU2513   AU        0.435244    0.404660    0.551652     0.007504
AU2514   AU        0.469407    0.364837    0.551213     0.007504
AU2515   AU        0.474171    0.399033    0.515842     0.007504
AU2516   AU        0.509442    0.360320    0.515793     0.007504
AU2517   AU        0.511836    0.398162    0.550719     0.007504
AU2518   AU        0.544631    0.358839    0.550021     0.007504
AU2519   AU        0.547755    0.395023    0.515085     0.007504
AU2520   AU        0.582342    0.359403    0.515000     0.007504
AU2521   AU        0.584088    0.394306    0.552896     0.007504
AU2522   AU        0.616331    0.355890    0.554353     0.007504
AU2523   AU        0.620251    0.396061    0.519137     0.007504
AU2524   AU        0.653578    0.356638    0.520060     0.007504
AU2525   AU        0.656913    0.392841    0.555247     0.007504
AU2526   AU        0.690373    0.354615    0.556949     0.007504
AU2527   AU        0.693457    0.391976    0.520998     0.007504
AU2528   AU        0.728434    0.353035    0.520712     0.007504
AU2529   AU        0.728084    0.385938    0.556861     0.007504
AU2530   AU        0.765362    0.352682    0.561154     0.007504
AU2531   AU        0.766319    0.386096    0.521801     0.007504
AU2532   AU        0.803071    0.351041    0.520814     0.007504
AU2533   AU        0.802612    0.386919    0.560033     0.007504
AU2534   AU        0.836094    0.348111    0.561362     0.007504
AU2535   AU        0.839402    0.383040    0.523811     0.007504
AU2536   AU        0.008097    0.463201    0.499453     0.007504
AU2537   AU        0.044019    0.461650    0.536830     0.007504
AU2538   AU        0.043535    0.497599    0.500498     0.007504
AU2539   AU        0.077592    0.459699    0.501354     0.007504
AU2540   AU        0.079137    0.498339    0.539682     0.007504
AU2541   AU        0.113541    0.460722    0.539513     0.007504
AU2542   AU        0.114920    0.494693    0.503425     0.007504
AU2543   AU        0.151323    0.458550    0.505020     0.007504
AU2544   AU        0.150218    0.496867    0.542746     0.007504
AU2545   AU        0.184562    0.456615    0.544027     0.007504
AU2546   AU        0.186033    0.490914    0.506188     0.007504
AU2547   AU        0.221838    0.451973    0.505353     0.007504
AU2548   AU        0.224088    0.489036    0.541755     0.007504
AU2549   AU        0.255472    0.448737    0.542264     0.007504
AU2550   AU        0.258784    0.486843    0.508768     0.007504
AU2551   AU        0.292753    0.445219    0.509638     0.007504
AU2552   AU        0.295703    0.485600    0.542867     0.007504
AU2553   AU        0.329394    0.448071    0.546046     0.007504
AU2554   AU        0.330343    0.483781    0.507438     0.007504
AU2555   AU        0.366842    0.443552    0.512241     0.007504
AU2556   AU        0.364894    0.481426    0.544785     0.007504
AU2557   AU        0.402307    0.440912    0.548617     0.007504
AU2558   AU        0.403998    0.478269    0.512276     0.007504
AU2559   AU        0.441336    0.437295    0.511829     0.007504
AU2560   AU        0.441585    0.473795    0.545413     0.007504
AU2561   AU        0.478321    0.436351    0.550417     0.007504
AU2562   AU        0.480500    0.472193    0.514932     0.007504
AU2563   AU        0.515952    0.434489    0.515843     0.007504
AU2564   AU        0.517015    0.471337    0.552418     0.007504
AU2565   AU        0.548794    0.431105    0.551743     0.007504
AU2566   AU        0.551962    0.469539    0.515380     0.007504
AU2567   AU        0.583182    0.429710    0.519139     0.007504
AU2568   AU        0.586500    0.466320    0.552974     0.007504
AU2569   AU        0.621921    0.427515    0.555494     0.007504
AU2570   AU        0.623796    0.466606    0.521225     0.007504
AU2571   AU        0.658075    0.428119    0.519741     0.007504
AU2572   AU        0.658445    0.463967    0.556407     0.007504
AU2573   AU        0.694611    0.427568    0.556300     0.007504
AU2574   AU        0.696386    0.464582    0.520234     0.007504
AU2575   AU        0.731381    0.424703    0.520128     0.007504
AU2576   AU        0.732089    0.463945    0.556442     0.007504
AU2577   AU        0.766600    0.423550    0.559001     0.007504
AU2578   AU        0.769452    0.460284    0.521682     0.007504
AU2579   AU        0.805262    0.421459    0.523511     0.007504
AU2580   AU        0.804172    0.457167    0.559578     0.007504
AU2581   AU        0.842317    0.422020    0.560077     0.007504
AU2582   AU        0.840334    0.454856    0.520792     0.007504
AU2583   AU        0.874120    0.419758    0.522082     0.007504
AU2584   AU        0.042628    0.533922    0.536782     0.007504
AU2585   AU        0.043560    0.569648    0.503543     0.007504
AU2586   AU        0.079262    0.532238    0.502345     0.007504
AU2587   AU        0.077912    0.567076    0.541347     0.007504
AU2588   AU        0.115546    0.530325    0.539960     0.007504
AU2589   AU        0.118188    0.568973    0.503167     0.007504
AU2590   AU        0.153515    0.529226    0.505843     0.007504
AU2591   AU        0.152974    0.561837    0.542794     0.007504
AU2592   AU        0.190454    0.528526    0.540635     0.007504
AU2593   AU        0.191983    0.562941    0.507708     0.007504
AU2594   AU        0.225406    0.525160    0.505742     0.007504
AU2595   AU        0.226631    0.561811    0.543437     0.007504
AU2596   AU        0.262925    0.521479    0.544863     0.007504
AU2597   AU        0.265362    0.559725    0.508309     0.007504
AU2598   AU        0.298700    0.521984    0.508183     0.007504
AU2599   AU        0.301097    0.557543    0.546627     0.007504
AU2600   AU        0.332608    0.518450    0.545058     0.007504
AU2601   AU        0.338195    0.553793    0.509937     0.007504
AU2602   AU        0.371105    0.516881    0.509915     0.007504
AU2603   AU        0.371826    0.549848    0.546306     0.007504
AU2604   AU        0.409128    0.512355    0.546903     0.007504
AU2605   AU        0.409404    0.550181    0.511180     0.007504
AU2606   AU        0.446798    0.511682    0.513194     0.007504
AU2607   AU        0.442553    0.546814    0.550938     0.007504
AU2608   AU        0.481989    0.510051    0.548637     0.007504
AU2609   AU        0.483144    0.546413    0.512021     0.007504
AU2610   AU        0.517156    0.508773    0.512962     0.007504
AU2611   AU        0.515727    0.543421    0.550520     0.007504
AU2612   AU        0.552342    0.505900    0.549551     0.007504
AU2613   AU        0.556081    0.541851    0.515640     0.007504
AU2614   AU        0.589504    0.502208    0.515865     0.007504
AU2615   AU        0.591753    0.540939    0.554078     0.007504
AU2616   AU        0.623091    0.502536    0.553602     0.007504
AU2617   AU        0.628795    0.540107    0.518953     0.007504
AU2618   AU        0.659263    0.500617    0.519212     0.007504
AU2619   AU        0.664326    0.538251    0.557316     0.007504
AU2620   AU        0.695265    0.500630    0.557315     0.007504
AU2621   AU        0.699282    0.536171    0.519441     0.007504
AU2622   AU        0.734862    0.498582    0.523557     0.007504
AU2623   AU        0.733819    0.535392    0.556988     0.007504
AU2624   AU        0.770636    0.495922    0.556186     0.007504
AU2625   AU        0.771073    0.533637    0.521083     0.007504
AU2626   AU        0.807396    0.495755    0.520480     0.007504
AU2627   AU        0.810797    0.530955    0.555908     0.007504
AU2628   AU        0.845943    0.490947    0.557269     0.007504
AU2629   AU        0.847088    0.528952    0.524536     0.007504
AU2630   AU        0.042695    0.606831    0.537395     0.007504
AU2631   AU        0.046189    0.641710    0.499780     0.007504
AU2632   AU        0.084314    0.603488    0.502367     0.007504
AU2633   AU        0.082378    0.637906    0.535965     0.007504
AU2634   AU        0.116834    0.600630    0.542984     0.007504
AU2635   AU        0.121642    0.636699    0.503456     0.007504
AU2636   AU        0.154758    0.600954    0.506786     0.007504
AU2637   AU        0.155530    0.634764    0.542011     0.007504
AU2638   AU        0.193363    0.598303    0.541619     0.007504
AU2639   AU        0.194716    0.634602    0.505239     0.007504
AU2640   AU        0.229614    0.598743    0.508404     0.007504
AU2641   AU        0.231595    0.633766    0.545928     0.007504
AU2642   AU        0.263232    0.595151    0.544045     0.007504
AU2643   AU        0.268149    0.629737    0.509119     0.007504
AU2644   AU        0.301426    0.591693    0.510285     0.007504
AU2645   AU        0.301507    0.628974    0.544019     0.007504
AU2646   AU        0.337185    0.591799    0.545889     0.007504
AU2647   AU        0.340854    0.625655    0.510508     0.007504
AU2648   AU        0.375151    0.585393    0.512618     0.007504
AU2649   AU        0.375909    0.623632    0.545888     0.007504
AU2650   AU        0.408711    0.584436    0.548105     0.007504
AU2651   AU        0.414776    0.622171    0.512128     0.007504
AU2652   AU        0.445850    0.583446    0.515858     0.007504
AU2653   AU        0.448901    0.622809    0.549993     0.007504
AU2654   AU        0.482575    0.582384    0.550181     0.007504
AU2655   AU        0.486176    0.617653    0.512944     0.007504
AU2656   AU        0.518998    0.580908    0.510667     0.007504
AU2657   AU        0.518686    0.615342    0.552293     0.007504
AU2658   AU        0.553468    0.578277    0.549958     0.007504
AU2659   AU        0.554515    0.615082    0.514603     0.007504
AU2660   AU        0.592448    0.576739    0.515138     0.007504
AU2661   AU        0.590820    0.612069    0.549996     0.007504
AU2662   AU        0.626907    0.575764    0.554662     0.007504
AU2663   AU        0.628286    0.613443    0.516855     0.007504
AU2664   AU        0.664344    0.574795    0.520562     0.007504
AU2665   AU        0.666337    0.611391    0.554541     0.007504
AU2666   AU        0.701673    0.574495    0.554980     0.007504
AU2667   AU        0.701548    0.609373    0.518923     0.007504
AU2668   AU        0.736212    0.569965    0.519844     0.007504
AU2669   AU        0.739026    0.609370    0.556197     0.007504
AU2670   AU        0.771716    0.569147    0.557623     0.007504
AU2671   AU        0.773067    0.603965    0.521091     0.007504
AU2672   AU        0.810557    0.568957    0.523977     0.007504
AU2673   AU        0.815433    0.602817    0.562647     0.007504
AU2674   AU        0.847744    0.564243    0.561083     0.007504
AU2675   AU        0.848027    0.603206    0.524588     0.007504
AU2676   AU        0.087432    0.674817    0.503743     0.007504
AU2677   AU        0.123453    0.673709    0.541473     0.007504
AU2678   AU        0.126780    0.708435    0.504624     0.007504
AU2679   AU        0.159294    0.670010    0.504581     0.007504
AU2680   AU        0.159950    0.711099    0.545957     0.007504
AU2681   AU        0.192483    0.668846    0.543259     0.007504
AU2682   AU        0.198406    0.703785    0.509405     0.007504
AU2683   AU        0.231631    0.666602    0.507427     0.007504
AU2684   AU        0.235651    0.702748    0.545519     0.007504
AU2685   AU        0.269034    0.669084    0.543764     0.007504
AU2686   AU        0.271375    0.701242    0.506934     0.007504
AU2687   AU        0.305787    0.664865    0.507566     0.007504
AU2688   AU        0.305181    0.701191    0.544557     0.007504
AU2689   AU        0.342295    0.663859    0.544371     0.007504
AU2690   AU        0.343628    0.698655    0.511966     0.007504
AU2691   AU        0.380040    0.662090    0.511300     0.007504
AU2692   AU        0.379559    0.699419    0.549201     0.007504
AU2693   AU        0.416086    0.657735    0.547653     0.007504
AU2694   AU        0.417072    0.696215    0.513069     0.007504
AU2695   AU        0.452393    0.659106    0.514968     0.007504
AU2696   AU        0.455024    0.694001    0.551167     0.007504
AU2697   AU        0.487725    0.653467    0.551695     0.007504
AU2698   AU        0.487554    0.693527    0.514185     0.007504
AU2699   AU        0.522971    0.653720    0.513967     0.007504
AU2700   AU        0.524909    0.690591    0.550808     0.007504
AU2701   AU        0.557488    0.650787    0.552185     0.007504
AU2702   AU        0.560686    0.687724    0.516500     0.007504
AU2703   AU        0.594969    0.650811    0.516788     0.007504
AU2704   AU        0.595569    0.684631    0.553620     0.007504
AU2705   AU        0.630114    0.647688    0.554077     0.007504
AU2706   AU        0.633137    0.684502    0.517017     0.007504
AU2707   AU        0.668726    0.646972    0.519217     0.007504
AU2708   AU        0.669688    0.681572    0.556238     0.007504
AU2709   AU        0.705982    0.641516    0.555063     0.007504
AU2710   AU        0.709695    0.683493    0.521534     0.007504
AU2711   AU        0.741761    0.643475    0.521387     0.007504
AU2712   AU        0.745139    0.682252    0.557796     0.007504
AU2713   AU        0.776775    0.640007    0.561896     0.007504
AU2714   AU        0.779517    0.676599    0.523212     0.007504
AU2715   AU        0.809290    0.635566    0.524460     0.007504
AU2716   AU        0.164828    0.744865    0.506915     0.007504
AU2717   AU        0.199629    0.742404    0.544245     0.007504
AU2718   AU        0.202559    0.777619    0.511398     0.007504
AU2719   AU        0.237710    0.740550    0.508722     0.007504
AU2720   AU        0.240569    0.775016    0.545612     0.007504
AU2721   AU        0.271241    0.734987    0.543114     0.007504
AU2722   AU        0.274790    0.773033    0.508747     0.007504
AU2723   AU        0.311617    0.735620    0.511378     0.007504
AU2724   AU        0.307493    0.772290    0.546790     0.007504
AU2725   AU        0.345786    0.733948    0.546548     0.007504
AU2726   AU        0.346700    0.771933    0.513949     0.007504
AU2727   AU        0.382570    0.731211    0.512292     0.007504
AU2728   AU        0.383398    0.768997    0.549660     0.007504
AU2729   AU        0.418787    0.732148    0.551789     0.007504
AU2730   AU        0.419518    0.768264    0.517577     0.007504
AU2731   AU        0.455667    0.732197    0.513631     0.007504
AU2732   AU        0.455768    0.769120    0.552867     0.007504
AU2733   AU        0.490222    0.731790    0.552728     0.007504
AU2734   AU        0.491212    0.764284    0.516589     0.007504
AU2735   AU        0.527561    0.725458    0.513948     0.007504
AU2736   AU        0.531483    0.761553    0.550438     0.007504
AU2737   AU        0.564487    0.724479    0.553344     0.007504
AU2738   AU        0.566945    0.756671    0.515691     0.007504
AU2739   AU        0.601764    0.723254    0.519465     0.007504
AU2740   AU        0.601077    0.759870    0.552558     0.007504
AU2741   AU        0.636191    0.722267    0.555534     0.007504
AU2742   AU        0.639528    0.755901    0.518342     0.007504
AU2743   AU        0.672941    0.715786    0.518222     0.007504
AU2744   AU        0.675317    0.756448    0.553471     0.007504
AU2745   AU        0.709036    0.718844    0.553588     0.007504
AU2746   AU        0.712484    0.751054    0.516165     0.007504
AU2747   AU        0.748817    0.718715    0.519722     0.007504
AU2748   AU        0.241569    0.811099    0.509445     0.007504
AU2749   AU        0.275780    0.809691    0.546972     0.007504
AU2750   AU        0.276673    0.848426    0.508837     0.007504
AU2751   AU        0.310149    0.810777    0.512144     0.007504
AU2752   AU        0.312017    0.845889    0.547381     0.007504
AU2753   AU        0.347048    0.806381    0.545587     0.007504
AU2754   AU        0.351408    0.844126    0.514417     0.007504
AU2755   AU        0.386550    0.808033    0.514761     0.007504
AU2756   AU        0.385370    0.844219    0.552271     0.007504
AU2757   AU        0.420226    0.806991    0.551529     0.007504
AU2758   AU        0.424428    0.843861    0.518232     0.007504
AU2759   AU        0.459755    0.801972    0.518571     0.007504
AU2760   AU        0.462946    0.839662    0.553085     0.007504
AU2761   AU        0.496813    0.797747    0.551074     0.007504
AU2762   AU        0.499825    0.834565    0.515509     0.007504
AU2763   AU        0.530128    0.795726    0.514300     0.007504
AU2764   AU        0.533857    0.832019    0.554276     0.007504
AU2765   AU        0.568145    0.795464    0.551876     0.007504
AU2766   AU        0.569753    0.832068    0.519187     0.007504
AU2767   AU        0.605954    0.794886    0.516508     0.007504
AU2768   AU        0.607807    0.830834    0.554600     0.007504
AU2769   AU        0.643169    0.793747    0.553370     0.007504
AU2770   AU        0.649160    0.829451    0.518323     0.007504
AU2771   AU        0.679638    0.790126    0.518227     0.007504
AU2772   AU        0.463694    0.874474    0.518480     0.007504
AU2773   AU        0.311416    0.043911    0.581203     0.007504
AU2774   AU        0.348840    0.043760    0.621089     0.007504
AU2775   AU        0.383118    0.042439    0.582915     0.007504
AU2776   AU        0.416469    0.040616    0.621586     0.007504
AU2777   AU        0.457463    0.039966    0.589167     0.007504
AU2778   AU        0.490898    0.037768    0.624842     0.007504
AU2779   AU        0.528153    0.034133    0.590410     0.007504
AU2780   AU        0.166387    0.125043    0.577621     0.007504
AU2781   AU        0.201100    0.118873    0.617283     0.007504
AU2782   AU        0.237462    0.086211    0.619252     0.007504
AU2783   AU        0.242734    0.118230    0.581741     0.007504
AU2784   AU        0.275488    0.082122    0.582493     0.007504
AU2785   AU        0.275716    0.121153    0.618717     0.007504
AU2786   AU        0.311336    0.083414    0.618078     0.007504
AU2787   AU        0.311702    0.117701    0.580938     0.007504
AU2788   AU        0.347292    0.079047    0.583139     0.007504
AU2789   AU        0.349793    0.115091    0.619553     0.007504
AU2790   AU        0.385152    0.078841    0.620091     0.007504
AU2791   AU        0.386525    0.114449    0.583852     0.007504
AU2792   AU        0.421789    0.078899    0.587297     0.007504
AU2793   AU        0.420949    0.116119    0.621161     0.007504
AU2794   AU        0.455025    0.076927    0.622926     0.007504
AU2795   AU        0.459227    0.112519    0.583061     0.007504
AU2796   AU        0.493895    0.072038    0.587466     0.007504
AU2797   AU        0.495857    0.110299    0.622605     0.007504
AU2798   AU        0.530481    0.071907    0.624914     0.007504
AU2799   AU        0.534380    0.108945    0.586301     0.007504
AU2800   AU        0.565826    0.068739    0.590148     0.007504
AU2801   AU        0.566705    0.106082    0.624443     0.007504
AU2802   AU        0.601152    0.069087    0.625714     0.007504
AU2803   AU        0.604003    0.106384    0.591027     0.007504
AU2804   AU        0.641215    0.102333    0.625185     0.007504
AU2805   AU        0.677578    0.100223    0.591491     0.007504
AU2806   AU        0.096234    0.204844    0.578017     0.007504
AU2807   AU        0.132451    0.162209    0.578148     0.007504
AU2808   AU        0.133154    0.200582    0.614927     0.007504
AU2809   AU        0.163354    0.160740    0.617148     0.007504
AU2810   AU        0.169520    0.197638    0.580401     0.007504
AU2811   AU        0.202543    0.158363    0.581873     0.007504
AU2812   AU        0.206562    0.195693    0.616413     0.007504
AU2813   AU        0.239550    0.156803    0.617069     0.007504
AU2814   AU        0.244881    0.192860    0.582011     0.007504
AU2815   AU        0.278326    0.155729    0.582583     0.007504
AU2816   AU        0.279589    0.194729    0.618190     0.007504
AU2817   AU        0.312786    0.156903    0.616857     0.007504
AU2818   AU        0.317616    0.193990    0.584122     0.007504
AU2819   AU        0.350436    0.153350    0.583019     0.007504
AU2820   AU        0.354074    0.192683    0.619037     0.007504
AU2821   AU        0.385703    0.155070    0.619810     0.007504
AU2822   AU        0.390921    0.188035    0.583803     0.007504
AU2823   AU        0.426517    0.150885    0.584082     0.007504
AU2824   AU        0.428906    0.184745    0.620329     0.007504
AU2825   AU        0.460503    0.147329    0.622548     0.007504
AU2826   AU        0.465824    0.184512    0.584852     0.007504
AU2827   AU        0.499378    0.146588    0.587301     0.007504
AU2828   AU        0.496413    0.181764    0.622866     0.007504
AU2829   AU        0.531065    0.145822    0.622742     0.007504
AU2830   AU        0.536403    0.179091    0.586060     0.007504
AU2831   AU        0.571488    0.144483    0.587110     0.007504
AU2832   AU        0.571085    0.181803    0.624922     0.007504
AU2833   AU        0.605133    0.141978    0.626711     0.007504
AU2834   AU        0.610016    0.176471    0.590813     0.007504
AU2835   AU        0.644153    0.139510    0.591093     0.007504
AU2836   AU        0.643505    0.176123    0.626909     0.007504
AU2837   AU        0.679706    0.135957    0.627575     0.007504
AU2838   AU        0.678163    0.173546    0.588752     0.007504
AU2839   AU        0.714598    0.136312    0.591892     0.007504
AU2840   AU        0.715459    0.172579    0.624991     0.007504
AU2841   AU        0.753659    0.170368    0.595419     0.007504
AU2842   AU        0.063126    0.280585    0.612596     0.007504
AU2843   AU        0.095735    0.239685    0.613852     0.007504
AU2844   AU        0.104256    0.274309    0.576344     0.007504
AU2845   AU        0.134029    0.237579    0.579080     0.007504
AU2846   AU        0.139908    0.273594    0.613266     0.007504
AU2847   AU        0.172725    0.234729    0.615355     0.007504
AU2848   AU        0.174814    0.272193    0.579965     0.007504
AU2849   AU        0.212036    0.231227    0.582383     0.007504
AU2850   AU        0.211285    0.270978    0.613845     0.007504
AU2851   AU        0.244846    0.233390    0.618565     0.007504
AU2852   AU        0.248571    0.268340    0.579453     0.007504
AU2853   AU        0.282308    0.229632    0.581623     0.007504
AU2854   AU        0.283954    0.268148    0.617534     0.007504
AU2855   AU        0.318322    0.227099    0.619397     0.007504
AU2856   AU        0.320090    0.262396    0.582889     0.007504
AU2857   AU        0.354640    0.226164    0.580619     0.007504
AU2858   AU        0.354283    0.259783    0.620588     0.007504
AU2859   AU        0.393080    0.224236    0.622047     0.007504
AU2860   AU        0.394420    0.260308    0.584675     0.007504
AU2861   AU        0.427614    0.223482    0.585791     0.007504
AU2862   AU        0.428871    0.258160    0.621496     0.007504
AU2863   AU        0.467378    0.221880    0.620847     0.007504
AU2864   AU        0.466323    0.258095    0.584887     0.007504
AU2865   AU        0.502940    0.218802    0.584443     0.007504
AU2866   AU        0.503869    0.255281    0.625151     0.007504
AU2867   AU        0.535228    0.216349    0.622331     0.007504
AU2868   AU        0.540102    0.252001    0.589828     0.007504
AU2869   AU        0.572487    0.215583    0.588725     0.007504
AU2870   AU        0.575043    0.251722    0.625882     0.007504
AU2871   AU        0.608303    0.211670    0.626645     0.007504
AU2872   AU        0.610512    0.248717    0.588393     0.007504
AU2873   AU        0.646501    0.212862    0.591331     0.007504
AU2874   AU        0.647206    0.248065    0.622879     0.007504
AU2875   AU        0.682574    0.210640    0.626236     0.007504
AU2876   AU        0.684680    0.246688    0.591307     0.007504
AU2877   AU        0.718748    0.206392    0.591593     0.007504
AU2878   AU        0.722481    0.243798    0.629129     0.007504
AU2879   AU        0.756059    0.206772    0.628923     0.007504
AU2880   AU        0.759993    0.243014    0.595033     0.007504
AU2881   AU        0.798850    0.240521    0.632749     0.007504
AU2882   AU        0.035125    0.352325    0.574487     0.007504
AU2883   AU        0.068713    0.313292    0.574972     0.007504
AU2884   AU        0.068981    0.350368    0.610878     0.007504
AU2885   AU        0.104757    0.311843    0.611598     0.007504
AU2886   AU        0.106694    0.347891    0.577390     0.007504
AU2887   AU        0.140551    0.309928    0.578971     0.007504
AU2888   AU        0.139462    0.347073    0.614032     0.007504
AU2889   AU        0.174958    0.308510    0.612001     0.007504
AU2890   AU        0.179065    0.344921    0.575832     0.007504
AU2891   AU        0.213559    0.305068    0.579200     0.007504
AU2892   AU        0.213742    0.343462    0.613240     0.007504
AU2893   AU        0.248871    0.305095    0.615630     0.007504
AU2894   AU        0.248324    0.341799    0.578295     0.007504
AU2895   AU        0.286784    0.305962    0.581299     0.007504
AU2896   AU        0.284828    0.340350    0.617746     0.007504
AU2897   AU        0.322291    0.302240    0.619030     0.007504
AU2898   AU        0.325713    0.337351    0.582396     0.007504
AU2899   AU        0.357509    0.295668    0.583499     0.007504
AU2900   AU        0.360741    0.338311    0.621028     0.007504
AU2901   AU        0.395166    0.297382    0.621028     0.007504
AU2902   AU        0.398207    0.332825    0.586870     0.007504
AU2903   AU        0.431415    0.295439    0.584129     0.007504
AU2904   AU        0.432476    0.331767    0.620909     0.007504
AU2905   AU        0.464489    0.292812    0.623145     0.007504
AU2906   AU        0.471082    0.327342    0.585748     0.007504
AU2907   AU        0.505752    0.290184    0.589043     0.007504
AU2908   AU        0.504579    0.327722    0.624993     0.007504
AU2909   AU        0.542119    0.289598    0.627244     0.007504
AU2910   AU        0.542052    0.325975    0.588090     0.007504
AU2911   AU        0.576151    0.286818    0.587299     0.007504
AU2912   AU        0.576330    0.323671    0.624186     0.007504
AU2913   AU        0.613207    0.285659    0.627664     0.007504
AU2914   AU        0.615696    0.319127    0.588554     0.007504
AU2915   AU        0.650105    0.285759    0.589748     0.007504
AU2916   AU        0.650213    0.319613    0.626953     0.007504
AU2917   AU        0.686459    0.282991    0.629000     0.007504
AU2918   AU        0.686936    0.317871    0.592560     0.007504
AU2919   AU        0.724452    0.280771    0.591948     0.007504
AU2920   AU        0.722703    0.315806    0.630851     0.007504
AU2921   AU        0.761770    0.277663    0.627535     0.007504
AU2922   AU        0.763964    0.313437    0.591796     0.007504
AU2923   AU        0.797332    0.275091    0.592772     0.007504
AU2924   AU        0.799361    0.310623    0.632239     0.007504
AU2925   AU        0.834562    0.309885    0.595198     0.007504
AU2926   AU        0.031951    0.389489    0.609125     0.007504
AU2927   AU        0.037717    0.425582    0.576138     0.007504
AU2928   AU        0.072254    0.387262    0.575096     0.007504
AU2929   AU        0.073951    0.422787    0.611298     0.007504
AU2930   AU        0.107028    0.385769    0.610019     0.007504
AU2931   AU        0.110465    0.423104    0.575287     0.007504
AU2932   AU        0.146463    0.385830    0.576536     0.007504
AU2933   AU        0.145658    0.421179    0.612330     0.007504
AU2934   AU        0.178831    0.382158    0.612520     0.007504
AU2935   AU        0.186147    0.418486    0.578588     0.007504
AU2936   AU        0.215786    0.377752    0.579094     0.007504
AU2937   AU        0.217090    0.416724    0.615894     0.007504
AU2938   AU        0.252344    0.376057    0.616693     0.007504
AU2939   AU        0.254438    0.412585    0.581903     0.007504
AU2940   AU        0.289759    0.374733    0.581020     0.007504
AU2941   AU        0.287492    0.411025    0.615684     0.007504
AU2942   AU        0.325055    0.376031    0.617290     0.007504
AU2943   AU        0.328395    0.411445    0.584496     0.007504
AU2944   AU        0.362495    0.371897    0.583418     0.007504
AU2945   AU        0.363193    0.407330    0.619712     0.007504
AU2946   AU        0.397824    0.371682    0.621497     0.007504
AU2947   AU        0.397997    0.407695    0.585668     0.007504
AU2948   AU        0.434518    0.367796    0.585945     0.007504
AU2949   AU        0.437977    0.406028    0.621779     0.007504
AU2950   AU        0.469460    0.366184    0.621798     0.007504
AU2951   AU        0.473945    0.401950    0.585945     0.007504
AU2952   AU        0.506642    0.362399    0.587111     0.007504
AU2953   AU        0.507781    0.400169    0.624806     0.007504
AU2954   AU        0.542598    0.361590    0.625004     0.007504
AU2955   AU        0.547043    0.397490    0.588759     0.007504
AU2956   AU        0.581530    0.358828    0.588869     0.007504
AU2957   AU        0.582377    0.395461    0.626595     0.007504
AU2958   AU        0.616669    0.358577    0.628808     0.007504
AU2959   AU        0.618792    0.390448    0.589080     0.007504
AU2960   AU        0.652190    0.354767    0.591193     0.007504
AU2961   AU        0.654797    0.391349    0.628869     0.007504
AU2962   AU        0.686962    0.353298    0.626055     0.007504
AU2963   AU        0.691139    0.391552    0.592429     0.007504
AU2964   AU        0.723877    0.354035    0.593887     0.007504
AU2965   AU        0.724211    0.391498    0.630374     0.007504
AU2966   AU        0.762538    0.348622    0.627759     0.007504
AU2967   AU        0.763977    0.389141    0.597094     0.007504
AU2968   AU        0.798691    0.348216    0.595377     0.007504
AU2969   AU        0.799368    0.384274    0.632463     0.007504
AU2970   AU        0.835256    0.345949    0.633700     0.007504
AU2971   AU        0.835585    0.383092    0.599098     0.007504
AU2972   AU        0.038986    0.459693    0.611241     0.007504
AU2973   AU        0.039856    0.498659    0.574846     0.007504
AU2974   AU        0.075653    0.460046    0.574640     0.007504
AU2975   AU        0.076403    0.495069    0.613056     0.007504
AU2976   AU        0.111020    0.458102    0.613420     0.007504
AU2977   AU        0.109274    0.495103    0.578354     0.007504
AU2978   AU        0.146633    0.454788    0.577146     0.007504
AU2979   AU        0.145115    0.491250    0.613437     0.007504
AU2980   AU        0.184252    0.454963    0.612530     0.007504
AU2981   AU        0.184242    0.490474    0.580438     0.007504
AU2982   AU        0.222009    0.453255    0.579367     0.007504
AU2983   AU        0.221665    0.488030    0.615381     0.007504
AU2984   AU        0.255691    0.450577    0.618403     0.007504
AU2985   AU        0.259446    0.484529    0.579604     0.007504
AU2986   AU        0.296172    0.450312    0.585121     0.007504
AU2987   AU        0.294441    0.483658    0.619193     0.007504
AU2988   AU        0.329387    0.447419    0.619522     0.007504
AU2989   AU        0.333018    0.484610    0.583532     0.007504
AU2990   AU        0.366522    0.447296    0.582491     0.007504
AU2991   AU        0.367215    0.480924    0.621214     0.007504
AU2992   AU        0.401162    0.444693    0.621671     0.007504
AU2993   AU        0.405902    0.477819    0.584102     0.007504
AU2994   AU        0.439721    0.441030    0.583979     0.007504
AU2995   AU        0.440765    0.474960    0.622011     0.007504
AU2996   AU        0.473397    0.435998    0.623147     0.007504
AU2997   AU        0.478880    0.474997    0.586823     0.007504
AU2998   AU        0.509222    0.437577    0.588027     0.007504
AU2999   AU        0.512946    0.470601    0.624193     0.007504
AU3000   AU        0.546100    0.430796    0.624452     0.007504
AU3001   AU        0.551118    0.467438    0.588246     0.007504
AU3002   AU        0.585303    0.428451    0.590242     0.007504
AU3003   AU        0.586619    0.466438    0.623879     0.007504
AU3004   AU        0.620019    0.429166    0.625626     0.007504
AU3005   AU        0.620092    0.465390    0.589151     0.007504
AU3006   AU        0.656653    0.429389    0.588576     0.007504
AU3007   AU        0.657884    0.465145    0.630434     0.007504
AU3008   AU        0.690472    0.426447    0.628919     0.007504
AU3009   AU        0.694476    0.462010    0.594679     0.007504
AU3010   AU        0.730683    0.426540    0.595404     0.007504
AU3011   AU        0.733070    0.462594    0.629168     0.007504
AU3012   AU        0.765946    0.425287    0.631183     0.007504
AU3013   AU        0.768672    0.462254    0.594034     0.007504
AU3014   AU        0.804544    0.423435    0.596769     0.007504
AU3015   AU        0.803153    0.463167    0.628910     0.007504
AU3016   AU        0.840299    0.424045    0.635201     0.007504
AU3017   AU        0.838462    0.459754    0.595053     0.007504
AU3018   AU        0.043160    0.534617    0.613588     0.007504
AU3019   AU        0.040765    0.569495    0.574616     0.007504
AU3020   AU        0.075984    0.533766    0.577431     0.007504
AU3021   AU        0.080860    0.569692    0.614343     0.007504
AU3022   AU        0.114123    0.530205    0.615157     0.007504
AU3023   AU        0.114668    0.564822    0.577976     0.007504
AU3024   AU        0.148764    0.528307    0.581279     0.007504
AU3025   AU        0.150151    0.564909    0.615863     0.007504
AU3026   AU        0.187493    0.527140    0.616482     0.007504
AU3027   AU        0.188295    0.560861    0.581410     0.007504
AU3028   AU        0.224562    0.523373    0.577764     0.007504
AU3029   AU        0.227277    0.559089    0.617141     0.007504
AU3030   AU        0.261232    0.521279    0.616245     0.007504
AU3031   AU        0.263991    0.555695    0.579939     0.007504
AU3032   AU        0.299662    0.518548    0.582502     0.007504
AU3033   AU        0.298624    0.557140    0.617206     0.007504
AU3034   AU        0.332281    0.519066    0.618744     0.007504
AU3035   AU        0.333814    0.554795    0.583235     0.007504
AU3036   AU        0.369886    0.515833    0.582333     0.007504
AU3037   AU        0.369189    0.552414    0.621477     0.007504
AU3038   AU        0.407027    0.512063    0.619754     0.007504
AU3039   AU        0.406451    0.547369    0.587196     0.007504
AU3040   AU        0.442780    0.509358    0.583455     0.007504
AU3041   AU        0.443745    0.546341    0.622585     0.007504
AU3042   AU        0.479229    0.509578    0.622461     0.007504
AU3043   AU        0.478494    0.545609    0.585619     0.007504
AU3044   AU        0.514914    0.505012    0.587173     0.007504
AU3045   AU        0.518000    0.542502    0.623001     0.007504
AU3046   AU        0.550872    0.507448    0.623427     0.007504
AU3047   AU        0.551922    0.544676    0.587534     0.007504
AU3048   AU        0.587313    0.505960    0.588307     0.007504
AU3049   AU        0.590137    0.540678    0.625396     0.007504
AU3050   AU        0.622260    0.502551    0.626024     0.007504
AU3051   AU        0.625671    0.538921    0.587955     0.007504
AU3052   AU        0.657859    0.499030    0.591820     0.007504
AU3053   AU        0.658950    0.536647    0.626710     0.007504
AU3054   AU        0.698549    0.497197    0.630156     0.007504
AU3055   AU        0.698180    0.538774    0.591067     0.007504
AU3056   AU        0.733343    0.497717    0.592070     0.007504
AU3057   AU        0.733965    0.535376    0.628782     0.007504
AU3058   AU        0.770088    0.498515    0.627312     0.007504
AU3059   AU        0.769850    0.533861    0.590309     0.007504
AU3060   AU        0.806294    0.497708    0.591029     0.007504
AU3061   AU        0.807494    0.532668    0.631065     0.007504
AU3062   AU        0.841427    0.494705    0.632304     0.007504
AU3063   AU        0.843729    0.529045    0.593400     0.007504
AU3064   AU        0.079395    0.604417    0.575652     0.007504
AU3065   AU        0.083230    0.637405    0.611083     0.007504
AU3066   AU        0.118533    0.604144    0.612102     0.007504
AU3067   AU        0.117976    0.638167    0.576583     0.007504
AU3068   AU        0.153382    0.598891    0.578900     0.007504
AU3069   AU        0.157359    0.636745    0.615453     0.007504
AU3070   AU        0.192004    0.594311    0.617273     0.007504
AU3071   AU        0.192328    0.631344    0.580421     0.007504
AU3072   AU        0.227114    0.596518    0.578471     0.007504
AU3073   AU        0.227711    0.630109    0.615748     0.007504
AU3074   AU        0.262529    0.594536    0.619611     0.007504
AU3075   AU        0.265529    0.629646    0.583173     0.007504
AU3076   AU        0.300884    0.593457    0.581133     0.007504
AU3077   AU        0.301691    0.629087    0.619066     0.007504
AU3078   AU        0.336315    0.590325    0.619341     0.007504
AU3079   AU        0.340207    0.626078    0.583981     0.007504
AU3080   AU        0.374736    0.586903    0.584200     0.007504
AU3081   AU        0.375110    0.622661    0.621921     0.007504
AU3082   AU        0.407883    0.584334    0.622876     0.007504
AU3083   AU        0.412752    0.623772    0.583530     0.007504
AU3084   AU        0.444361    0.583418    0.587390     0.007504
AU3085   AU        0.444974    0.622207    0.622220     0.007504
AU3086   AU        0.480506    0.581722    0.619721     0.007504
AU3087   AU        0.484505    0.619309    0.590382     0.007504
AU3088   AU        0.517669    0.581899    0.586260     0.007504
AU3089   AU        0.520766    0.616779    0.621351     0.007504
AU3090   AU        0.553765    0.577865    0.625612     0.007504
AU3091   AU        0.558983    0.611227    0.589523     0.007504
AU3092   AU        0.591417    0.575161    0.588678     0.007504
AU3093   AU        0.591099    0.611273    0.626857     0.007504
AU3094   AU        0.627096    0.575245    0.625830     0.007504
AU3095   AU        0.629098    0.612658    0.589372     0.007504
AU3096   AU        0.667033    0.575305    0.591012     0.007504
AU3097   AU        0.664901    0.609289    0.627367     0.007504
AU3098   AU        0.702465    0.572429    0.626800     0.007504
AU3099   AU        0.702009    0.608046    0.593190     0.007504
AU3100   AU        0.736431    0.572441    0.593443     0.007504
AU3101   AU        0.738763    0.607858    0.631154     0.007504
AU3102   AU        0.770270    0.567116    0.631399     0.007504
AU3103   AU        0.777049    0.602647    0.597994     0.007504
AU3104   AU        0.807249    0.565513    0.595330     0.007504
AU3105   AU        0.810701    0.601095    0.633606     0.007504
AU3106   AU        0.119846    0.672269    0.614973     0.007504
AU3107   AU        0.121423    0.711096    0.581430     0.007504
AU3108   AU        0.156943    0.671668    0.578187     0.007504
AU3109   AU        0.156421    0.708144    0.615213     0.007504
AU3110   AU        0.191322    0.669355    0.614530     0.007504
AU3111   AU        0.197312    0.704182    0.576907     0.007504
AU3112   AU        0.231872    0.664101    0.581356     0.007504
AU3113   AU        0.231045    0.702989    0.617139     0.007504
AU3114   AU        0.267672    0.664472    0.617273     0.007504
AU3115   AU        0.270595    0.701027    0.581970     0.007504
AU3116   AU        0.306665    0.661097    0.580842     0.007504
AU3117   AU        0.306682    0.697298    0.619757     0.007504
AU3118   AU        0.342680    0.663004    0.618280     0.007504
AU3119   AU        0.340096    0.699425    0.581167     0.007504
AU3120   AU        0.378094    0.660491    0.581323     0.007504
AU3121   AU        0.379178    0.697587    0.615246     0.007504
AU3122   AU        0.413433    0.657497    0.621046     0.007504
AU3123   AU        0.418394    0.690961    0.582725     0.007504
AU3124   AU        0.452348    0.655367    0.583698     0.007504
AU3125   AU        0.451828    0.692718    0.621730     0.007504
AU3126   AU        0.485594    0.655907    0.625534     0.007504
AU3127   AU        0.487937    0.694077    0.587857     0.007504
AU3128   AU        0.520885    0.654846    0.586772     0.007504
AU3129   AU        0.522314    0.693289    0.625346     0.007504
AU3130   AU        0.559672    0.654854    0.625257     0.007504
AU3131   AU        0.560347    0.688997    0.589410     0.007504
AU3132   AU        0.594374    0.649619    0.589485     0.007504
AU3133   AU        0.596723    0.687967    0.628498     0.007504
AU3134   AU        0.631302    0.647459    0.626366     0.007504
AU3135   AU        0.634836    0.685435    0.592823     0.007504
AU3136   AU        0.667001    0.647126    0.591421     0.007504
AU3137   AU        0.669698    0.680414    0.627397     0.007504
AU3138   AU        0.703824    0.642252    0.628541     0.007504
AU3139   AU        0.706651    0.680347    0.591973     0.007504
AU3140   AU        0.739656    0.641438    0.595616     0.007504
AU3141   AU        0.739509    0.678175    0.628418     0.007504
AU3142   AU        0.774642    0.642333    0.633569     0.007504
AU3143   AU        0.776969    0.679050    0.594650     0.007504
AU3144   AU        0.162883    0.744920    0.580493     0.007504
AU3145   AU        0.195966    0.739935    0.617754     0.007504
AU3146   AU        0.199646    0.781249    0.579215     0.007504
AU3147   AU        0.232697    0.740436    0.582246     0.007504
AU3148   AU        0.232363    0.774577    0.617732     0.007504
AU3149   AU        0.268619    0.739719    0.615671     0.007504
AU3150   AU        0.272522    0.774047    0.583072     0.007504
AU3151   AU        0.305428    0.735591    0.581608     0.007504
AU3152   AU        0.306392    0.771857    0.618386     0.007504
AU3153   AU        0.343224    0.735282    0.617361     0.007504
AU3154   AU        0.345359    0.770502    0.582610     0.007504
AU3155   AU        0.379857    0.734569    0.584592     0.007504
AU3156   AU        0.380844    0.770730    0.621797     0.007504
AU3157   AU        0.417973    0.730893    0.621796     0.007504
AU3158   AU        0.417220    0.769142    0.589174     0.007504
AU3159   AU        0.453398    0.731545    0.584917     0.007504
AU3160   AU        0.453626    0.767142    0.623907     0.007504
AU3161   AU        0.487556    0.729890    0.624467     0.007504
AU3162   AU        0.489640    0.765885    0.589696     0.007504
AU3163   AU        0.525242    0.725705    0.587269     0.007504
AU3164   AU        0.527902    0.762069    0.625604     0.007504
AU3165   AU        0.561149    0.724231    0.626886     0.007504
AU3166   AU        0.566275    0.760442    0.589787     0.007504
AU3167   AU        0.599252    0.721106    0.591089     0.007504
AU3168   AU        0.602080    0.759712    0.626361     0.007504
AU3169   AU        0.636059    0.720567    0.629076     0.007504
AU3170   AU        0.639088    0.756102    0.590956     0.007504
AU3171   AU        0.675777    0.719018    0.591695     0.007504
AU3172   AU        0.673255    0.757590    0.627083     0.007504
AU3173   AU        0.709327    0.718790    0.629147     0.007504
AU3174   AU        0.708150    0.753306    0.593112     0.007504
AU3175   AU        0.743040    0.716380    0.593537     0.007504
AU3176   AU        0.270126    0.811335    0.614852     0.007504
AU3177   AU        0.310196    0.809465    0.583034     0.007504
AU3178   AU        0.344875    0.807285    0.621411     0.007504
AU3179   AU        0.347695    0.842465    0.584277     0.007504
AU3180   AU        0.382450    0.807469    0.587588     0.007504
AU3181   AU        0.382809    0.845269    0.621550     0.007504
AU3182   AU        0.418113    0.807266    0.622161     0.007504
AU3183   AU        0.422153    0.842575    0.585835     0.007504
AU3184   AU        0.457244    0.804133    0.589388     0.007504
AU3185   AU        0.454279    0.842752    0.624257     0.007504
AU3186   AU        0.494920    0.801882    0.624539     0.007504
AU3187   AU        0.497221    0.837715    0.588754     0.007504
AU3188   AU        0.532324    0.796716    0.587795     0.007504
AU3189   AU        0.532093    0.836266    0.626425     0.007504
AU3190   AU        0.565743    0.795759    0.626847     0.007504
AU3191   AU        0.569161    0.831361    0.588357     0.007504
AU3192   AU        0.605820    0.794264    0.588119     0.007504
AU3193   AU        0.638122    0.792571    0.625380     0.007504
AU3194   AU        0.239042    0.121404    0.654779     0.007504
AU3195   AU        0.275917    0.117866    0.692137     0.007504
AU3196   AU        0.312887    0.118244    0.655897     0.007504
AU3197   AU        0.345338    0.080218    0.657634     0.007504
AU3198   AU        0.346878    0.121498    0.692304     0.007504
AU3199   AU        0.381231    0.080419    0.694140     0.007504
AU3200   AU        0.383965    0.115183    0.658214     0.007504
AU3201   AU        0.419269    0.079009    0.658741     0.007504
AU3202   AU        0.421022    0.112339    0.697068     0.007504
AU3203   AU        0.458326    0.076009    0.691958     0.007504
AU3204   AU        0.458338    0.112983    0.659298     0.007504
AU3205   AU        0.494609    0.075359    0.658533     0.007504
AU3206   AU        0.493740    0.112313    0.693792     0.007504
AU3207   AU        0.528680    0.110854    0.659270     0.007504
AU3208   AU        0.564367    0.107128    0.694303     0.007504
AU3209   AU        0.600626    0.106341    0.661220     0.007504
AU3210   AU        0.169301    0.199701    0.650257     0.007504
AU3211   AU        0.205129    0.158911    0.652070     0.007504
AU3212   AU        0.205313    0.198395    0.686444     0.007504
AU3213   AU        0.241419    0.159341    0.690637     0.007504
AU3214   AU        0.241619    0.193345    0.654275     0.007504
AU3215   AU        0.276676    0.157103    0.654885     0.007504
AU3216   AU        0.278458    0.192328    0.689702     0.007504
AU3217   AU        0.310940    0.156937    0.689764     0.007504
AU3218   AU        0.316053    0.191929    0.653081     0.007504
AU3219   AU        0.349913    0.152767    0.653391     0.007504
AU3220   AU        0.349415    0.188532    0.688635     0.007504
AU3221   AU        0.387700    0.153503    0.692826     0.007504
AU3222   AU        0.390185    0.189530    0.656392     0.007504
AU3223   AU        0.422325    0.150042    0.657129     0.007504
AU3224   AU        0.423618    0.185857    0.694107     0.007504
AU3225   AU        0.459776    0.149642    0.695915     0.007504
AU3226   AU        0.460103    0.181161    0.659372     0.007504
AU3227   AU        0.495087    0.148007    0.658585     0.007504
AU3228   AU        0.498454    0.182516    0.695397     0.007504
AU3229   AU        0.531052    0.143700    0.697479     0.007504
AU3230   AU        0.532595    0.182312    0.660308     0.007504
AU3231   AU        0.566266    0.144810    0.658591     0.007504
AU3232   AU        0.569720    0.179008    0.697034     0.007504
AU3233   AU        0.604306    0.140875    0.698737     0.007504
AU3234   AU        0.604988    0.175093    0.660665     0.007504
AU3235   AU        0.641574    0.137144    0.662494     0.007504
AU3236   AU        0.641246    0.175111    0.698596     0.007504
AU3237   AU        0.678702    0.173720    0.664552     0.007504
AU3238   AU        0.100601    0.278063    0.647702     0.007504
AU3239   AU        0.133335    0.237970    0.651039     0.007504
AU3240   AU        0.135460    0.275837    0.685169     0.007504
AU3241   AU        0.172659    0.234330    0.687168     0.007504
AU3242   AU        0.170901    0.271080    0.651574     0.007504
AU3243   AU        0.207298    0.234888    0.649500     0.007504
AU3244   AU        0.208632    0.271802    0.685553     0.007504
AU3245   AU        0.244668    0.233468    0.687211     0.007504
AU3246   AU        0.244268    0.269430    0.652758     0.007504
AU3247   AU        0.279677    0.229785    0.653908     0.007504
AU3248   AU        0.281543    0.268439    0.688049     0.007504
AU3249   AU        0.317035    0.228218    0.689796     0.007504
AU3250   AU        0.317125    0.262965    0.653189     0.007504
AU3251   AU        0.355059    0.224823    0.655613     0.007504
AU3252   AU        0.353578    0.263440    0.689745     0.007504
AU3253   AU        0.389916    0.224719    0.692043     0.007504
AU3254   AU        0.390803    0.261528    0.652994     0.007504
AU3255   AU        0.428976    0.223083    0.658717     0.007504
AU3256   AU        0.428631    0.257216    0.693656     0.007504
AU3257   AU        0.464962    0.218637    0.696046     0.007504
AU3258   AU        0.465826    0.255026    0.659719     0.007504
AU3259   AU        0.500240    0.218802    0.659955     0.007504
AU3260   AU        0.499136    0.255334    0.701000     0.007504
AU3261   AU        0.534613    0.218010    0.696328     0.007504
AU3262   AU        0.536464    0.255335    0.663193     0.007504
AU3263   AU        0.574391    0.216104    0.659096     0.007504
AU3264   AU        0.574144    0.250588    0.699944     0.007504
AU3265   AU        0.606121    0.212782    0.698591     0.007504
AU3266   AU        0.608015    0.252457    0.663098     0.007504
AU3267   AU        0.643210    0.212456    0.664564     0.007504
AU3268   AU        0.646119    0.248854    0.700332     0.007504
AU3269   AU        0.677534    0.210581    0.700078     0.007504
AU3270   AU        0.683070    0.245425    0.662907     0.007504
AU3271   AU        0.719413    0.209881    0.663671     0.007504
AU3272   AU        0.722278    0.241819    0.706150     0.007504
AU3273   AU        0.758614    0.243137    0.664470     0.007504
AU3274   AU        0.100523    0.312159    0.686757     0.007504
AU3275   AU        0.102157    0.348159    0.649729     0.007504
AU3276   AU        0.137220    0.310849    0.650160     0.007504
AU3277   AU        0.137153    0.346420    0.685407     0.007504
AU3278   AU        0.173745    0.309929    0.684702     0.007504
AU3279   AU        0.176413    0.343846    0.649102     0.007504
AU3280   AU        0.211117    0.306113    0.650096     0.007504
AU3281   AU        0.213747    0.344378    0.684791     0.007504
AU3282   AU        0.247793    0.306395    0.686222     0.007504
AU3283   AU        0.248439    0.338303    0.651097     0.007504
AU3284   AU        0.283570    0.302611    0.652978     0.007504
AU3285   AU        0.285178    0.340672    0.686673     0.007504
AU3286   AU        0.319133    0.302146    0.691136     0.007504
AU3287   AU        0.322459    0.339232    0.653485     0.007504
AU3288   AU        0.355986    0.299497    0.656457     0.007504
AU3289   AU        0.358399    0.335439    0.691927     0.007504
AU3290   AU        0.393714    0.296456    0.694460     0.007504
AU3291   AU        0.395825    0.332379    0.657751     0.007504
AU3292   AU        0.430626    0.294958    0.658822     0.007504
AU3293   AU        0.430422    0.330690    0.696342     0.007504
AU3294   AU        0.464814    0.293445    0.697784     0.007504
AU3295   AU        0.467687    0.328780    0.657590     0.007504
AU3296   AU        0.499736    0.289839    0.660239     0.007504
AU3297   AU        0.499801    0.328584    0.696286     0.007504
AU3298   AU        0.537947    0.289278    0.697312     0.007504
AU3299   AU        0.538520    0.325617    0.659967     0.007504
AU3300   AU        0.575971    0.290280    0.664124     0.007504
AU3301   AU        0.577386    0.324315    0.697892     0.007504
AU3302   AU        0.610710    0.286999    0.700451     0.007504
AU3303   AU        0.614533    0.323772    0.662758     0.007504
AU3304   AU        0.651215    0.282223    0.663752     0.007504
AU3305   AU        0.650776    0.319644    0.698607     0.007504
AU3306   AU        0.685019    0.281719    0.704114     0.007504
AU3307   AU        0.687215    0.320463    0.662975     0.007504
AU3308   AU        0.721736    0.277875    0.664616     0.007504
AU3309   AU        0.723804    0.316993    0.700562     0.007504
AU3310   AU        0.757326    0.279025    0.705655     0.007504
AU3311   AU        0.761824    0.312804    0.664656     0.007504
AU3312   AU        0.067940    0.388515    0.644266     0.007504
AU3313   AU        0.069822    0.421464    0.687640     0.007504
AU3314   AU        0.104698    0.386237    0.683648     0.007504
AU3315   AU        0.110553    0.422745    0.647698     0.007504
AU3316   AU        0.141138    0.383320    0.650827     0.007504
AU3317   AU        0.142375    0.418464    0.685946     0.007504
AU3318   AU        0.178142    0.379400    0.685894     0.007504
AU3319   AU        0.178897    0.416780    0.649878     0.007504
AU3320   AU        0.213393    0.379656    0.650221     0.007504
AU3321   AU        0.213724    0.415240    0.687212     0.007504
AU3322   AU        0.252003    0.378847    0.688665     0.007504
AU3323   AU        0.249285    0.415865    0.652947     0.007504
AU3324   AU        0.285900    0.377856    0.650570     0.007504
AU3325   AU        0.291747    0.410703    0.687150     0.007504
AU3326   AU        0.325399    0.373718    0.687443     0.007504
AU3327   AU        0.328371    0.408750    0.652849     0.007504
AU3328   AU        0.363596    0.374113    0.655826     0.007504
AU3329   AU        0.362224    0.407415    0.693028     0.007504
AU3330   AU        0.394776    0.368664    0.695415     0.007504
AU3331   AU        0.398784    0.408287    0.657791     0.007504
AU3332   AU        0.430673    0.367754    0.660758     0.007504
AU3333   AU        0.433407    0.405034    0.692410     0.007504
AU3334   AU        0.464580    0.366033    0.695277     0.007504
AU3335   AU        0.470777    0.401081    0.660187     0.007504
AU3336   AU        0.504060    0.363532    0.660293     0.007504
AU3337   AU        0.507043    0.398473    0.697562     0.007504
AU3338   AU        0.537821    0.360704    0.696167     0.007504
AU3339   AU        0.545121    0.395814    0.659061     0.007504
AU3340   AU        0.578690    0.357505    0.660167     0.007504
AU3341   AU        0.577649    0.392271    0.697672     0.007504
AU3342   AU        0.615562    0.356406    0.700273     0.007504
AU3343   AU        0.616014    0.393508    0.664572     0.007504
AU3344   AU        0.655013    0.356706    0.664912     0.007504
AU3345   AU        0.652416    0.392111    0.699513     0.007504
AU3346   AU        0.688463    0.353757    0.701442     0.007504
AU3347   AU        0.690763    0.392397    0.664318     0.007504
AU3348   AU        0.727867    0.352266    0.665607     0.007504
AU3349   AU        0.728340    0.389694    0.701219     0.007504
AU3350   AU        0.762358    0.353261    0.701532     0.007504
AU3351   AU        0.763565    0.387614    0.666723     0.007504
AU3352   AU        0.798692    0.347777    0.667742     0.007504
AU3353   AU        0.801637    0.385513    0.700790     0.007504
AU3354   AU        0.073417    0.457549    0.649694     0.007504
AU3355   AU        0.076127    0.492085    0.691724     0.007504
AU3356   AU        0.110244    0.455989    0.687007     0.007504
AU3357   AU        0.110264    0.494874    0.651605     0.007504
AU3358   AU        0.148669    0.458633    0.649002     0.007504
AU3359   AU        0.146423    0.494466    0.686455     0.007504
AU3360   AU        0.181754    0.452253    0.688423     0.007504
AU3361   AU        0.187169    0.491109    0.652966     0.007504
AU3362   AU        0.216439    0.451452    0.652191     0.007504
AU3363   AU        0.218944    0.486299    0.691328     0.007504
AU3364   AU        0.254967    0.447618    0.690028     0.007504
AU3365   AU        0.257691    0.484715    0.655070     0.007504
AU3366   AU        0.292527    0.447420    0.654030     0.007504
AU3367   AU        0.293362    0.483553    0.693144     0.007504
AU3368   AU        0.327595    0.445384    0.692288     0.007504
AU3369   AU        0.330610    0.482234    0.656451     0.007504
AU3370   AU        0.364912    0.443432    0.658900     0.007504
AU3371   AU        0.365727    0.481932    0.694441     0.007504
AU3372   AU        0.402840    0.444853    0.694558     0.007504
AU3373   AU        0.402275    0.480350    0.657238     0.007504
AU3374   AU        0.437300    0.440731    0.657300     0.007504
AU3375   AU        0.438805    0.475028    0.695081     0.007504
AU3376   AU        0.473081    0.438957    0.695764     0.007504
AU3377   AU        0.476532    0.471148    0.659455     0.007504
AU3378   AU        0.509593    0.432930    0.663850     0.007504
AU3379   AU        0.508863    0.474449    0.698162     0.007504
AU3380   AU        0.544550    0.432310    0.697646     0.007504
AU3381   AU        0.547504    0.469150    0.656043     0.007504
AU3382   AU        0.581699    0.432156    0.660896     0.007504
AU3383   AU        0.580904    0.463921    0.697243     0.007504
AU3384   AU        0.614544    0.427655    0.700115     0.007504
AU3385   AU        0.619381    0.466010    0.660394     0.007504
AU3386   AU        0.652632    0.426418    0.665332     0.007504
AU3387   AU        0.653805    0.465157    0.696602     0.007504
AU3388   AU        0.692486    0.424469    0.699628     0.007504
AU3389   AU        0.695262    0.461405    0.667052     0.007504
AU3390   AU        0.728935    0.426615    0.667012     0.007504
AU3391   AU        0.729291    0.460810    0.704077     0.007504
AU3392   AU        0.764922    0.424211    0.704260     0.007504
AU3393   AU        0.768494    0.459246    0.665822     0.007504
AU3394   AU        0.804493    0.423552    0.667494     0.007504
AU3395   AU        0.801912    0.458781    0.705981     0.007504
AU3396   AU        0.076098    0.531216    0.652125     0.007504
AU3397   AU        0.110423    0.530071    0.688378     0.007504
AU3398   AU        0.113610    0.566796    0.650473     0.007504
AU3399   AU        0.150205    0.528968    0.650000     0.007504
AU3400   AU        0.149284    0.564968    0.688441     0.007504
AU3401   AU        0.185205    0.527595    0.688445     0.007504
AU3402   AU        0.192209    0.562059    0.654588     0.007504
AU3403   AU        0.224512    0.519242    0.655229     0.007504
AU3404   AU        0.224217    0.558434    0.690465     0.007504
AU3405   AU        0.257653    0.521088    0.690350     0.007504
AU3406   AU        0.258410    0.557387    0.655909     0.007504
AU3407   AU        0.294709    0.520375    0.653897     0.007504
AU3408   AU        0.294554    0.554815    0.692263     0.007504
AU3409   AU        0.330277    0.518182    0.691354     0.007504
AU3410   AU        0.331913    0.554318    0.656392     0.007504
AU3411   AU        0.366066    0.518633    0.657736     0.007504
AU3412   AU        0.369317    0.555525    0.691634     0.007504
AU3413   AU        0.405056    0.513037    0.694130     0.007504
AU3414   AU        0.405405    0.546762    0.656400     0.007504
AU3415   AU        0.441906    0.509745    0.656863     0.007504
AU3416   AU        0.443189    0.548759    0.693755     0.007504
AU3417   AU        0.477253    0.510844    0.692768     0.007504
AU3418   AU        0.479860    0.545960    0.659803     0.007504
AU3419   AU        0.514201    0.508250    0.658902     0.007504
AU3420   AU        0.514862    0.543227    0.697735     0.007504
AU3421   AU        0.547157    0.505538    0.696608     0.007504
AU3422   AU        0.552360    0.543408    0.662761     0.007504
AU3423   AU        0.584867    0.502965    0.662332     0.007504
AU3424   AU        0.588048    0.541237    0.696626     0.007504
AU3425   AU        0.620534    0.500863    0.696791     0.007504
AU3426   AU        0.625858    0.538392    0.662528     0.007504
AU3427   AU        0.660586    0.501929    0.664717     0.007504
AU3428   AU        0.661010    0.534251    0.699458     0.007504
AU3429   AU        0.696593    0.496921    0.704652     0.007504
AU3430   AU        0.696014    0.535867    0.665200     0.007504
AU3431   AU        0.732738    0.495821    0.666519     0.007504
AU3432   AU        0.729155    0.532145    0.704609     0.007504
AU3433   AU        0.765703    0.495096    0.706336     0.007504
AU3434   AU        0.767450    0.532627    0.667925     0.007504
AU3435   AU        0.805291    0.495928    0.669784     0.007504
AU3436   AU        0.113658    0.601113    0.687518     0.007504
AU3437   AU        0.116462    0.637756    0.649922     0.007504
AU3438   AU        0.150574    0.600738    0.651744     0.007504
AU3439   AU        0.152602    0.635175    0.686829     0.007504
AU3440   AU        0.187093    0.597659    0.688043     0.007504
AU3441   AU        0.189371    0.634628    0.651127     0.007504
AU3442   AU        0.226974    0.598847    0.655295     0.007504
AU3443   AU        0.230004    0.630862    0.690889     0.007504
AU3444   AU        0.263377    0.592892    0.690853     0.007504
AU3445   AU        0.266205    0.631100    0.655706     0.007504
AU3446   AU        0.296440    0.591831    0.655732     0.007504
AU3447   AU        0.300797    0.626798    0.692900     0.007504
AU3448   AU        0.334543    0.590320    0.693957     0.007504
AU3449   AU        0.336884    0.626477    0.654914     0.007504
AU3450   AU        0.369452    0.589024    0.655212     0.007504
AU3451   AU        0.375403    0.622366    0.692372     0.007504
AU3452   AU        0.407453    0.582780    0.688184     0.007504
AU3453   AU        0.412741    0.621569    0.656860     0.007504
AU3454   AU        0.446891    0.582048    0.659224     0.007504
AU3455   AU        0.445782    0.619251    0.693864     0.007504
AU3456   AU        0.481657    0.582125    0.695664     0.007504
AU3457   AU        0.483503    0.616795    0.658304     0.007504
AU3458   AU        0.515314    0.579600    0.660420     0.007504
AU3459   AU        0.517677    0.617660    0.696113     0.007504
AU3460   AU        0.549518    0.577506    0.697183     0.007504
AU3461   AU        0.552542    0.614064    0.661494     0.007504
AU3462   AU        0.591517    0.576296    0.659263     0.007504
AU3463   AU        0.588565    0.611691    0.694507     0.007504
AU3464   AU        0.627268    0.578180    0.696570     0.007504
AU3465   AU        0.629468    0.610913    0.661708     0.007504
AU3466   AU        0.662571    0.573001    0.661962     0.007504
AU3467   AU        0.663865    0.609005    0.701953     0.007504
AU3468   AU        0.696200    0.570904    0.700928     0.007504
AU3469   AU        0.700784    0.607078    0.664929     0.007504
AU3470   AU        0.734484    0.570830    0.667224     0.007504
AU3471   AU        0.733863    0.607106    0.702901     0.007504
AU3472   AU        0.767206    0.569486    0.705865     0.007504
AU3473   AU        0.770951    0.603936    0.669044     0.007504
AU3474   AU        0.154902    0.673179    0.652034     0.007504
AU3475   AU        0.190290    0.667963    0.688905     0.007504
AU3476   AU        0.193459    0.704091    0.652035     0.007504
AU3477   AU        0.228526    0.665605    0.653471     0.007504
AU3478   AU        0.230720    0.702750    0.688190     0.007504
AU3479   AU        0.269585    0.666048    0.690801     0.007504
AU3480   AU        0.267976    0.700714    0.652773     0.007504
AU3481   AU        0.305496    0.664235    0.657139     0.007504
AU3482   AU        0.305257    0.700859    0.690753     0.007504
AU3483   AU        0.339708    0.662223    0.691035     0.007504
AU3484   AU        0.343532    0.698631    0.653168     0.007504
AU3485   AU        0.377700    0.659736    0.655298     0.007504
AU3486   AU        0.376710    0.695003    0.694237     0.007504
AU3487   AU        0.411027    0.657931    0.691765     0.007504
AU3488   AU        0.414234    0.692423    0.656292     0.007504
AU3489   AU        0.449629    0.657270    0.661156     0.007504
AU3490   AU        0.445715    0.695857    0.695759     0.007504
AU3491   AU        0.483092    0.656536    0.696250     0.007504
AU3492   AU        0.486170    0.694334    0.662248     0.007504
AU3493   AU        0.520609    0.650958    0.660636     0.007504
AU3494   AU        0.521395    0.687132    0.698908     0.007504
AU3495   AU        0.556955    0.650054    0.699782     0.007504
AU3496   AU        0.557209    0.688995    0.663933     0.007504
AU3497   AU        0.593387    0.649215    0.662202     0.007504
AU3498   AU        0.593250    0.686303    0.696883     0.007504
AU3499   AU        0.630298    0.647336    0.698615     0.007504
AU3500   AU        0.630174    0.684560    0.664371     0.007504
AU3501   AU        0.668217    0.644530    0.665144     0.007504
AU3502   AU        0.667117    0.682078    0.700954     0.007504
AU3503   AU        0.701092    0.645556    0.702597     0.007504
AU3504   AU        0.703736    0.683035    0.664160     0.007504
AU3505   AU        0.739013    0.643435    0.667860     0.007504
AU3506   AU        0.231538    0.738129    0.653035     0.007504
AU3507   AU        0.268597    0.737777    0.688442     0.007504
AU3508   AU        0.269769    0.774125    0.652027     0.007504
AU3509   AU        0.307845    0.737151    0.655370     0.007504
AU3510   AU        0.305811    0.773063    0.690357     0.007504
AU3511   AU        0.344555    0.733230    0.688594     0.007504
AU3512   AU        0.343662    0.771854    0.655904     0.007504
AU3513   AU        0.381126    0.731313    0.654090     0.007504
AU3514   AU        0.376854    0.769308    0.692883     0.007504
AU3515   AU        0.413317    0.733109    0.694368     0.007504
AU3516   AU        0.416033    0.768688    0.657729     0.007504
AU3517   AU        0.451379    0.729747    0.659215     0.007504
AU3518   AU        0.450354    0.766107    0.691698     0.007504
AU3519   AU        0.488300    0.728351    0.696042     0.007504
AU3520   AU        0.490894    0.763022    0.661860     0.007504
AU3521   AU        0.525815    0.727338    0.661350     0.007504
AU3522   AU        0.527206    0.762503    0.698256     0.007504
AU3523   AU        0.559907    0.724356    0.699311     0.007504
AU3524   AU        0.562667    0.759145    0.663579     0.007504
AU3525   AU        0.598813    0.722049    0.664277     0.007504
AU3526   AU        0.597798    0.759563    0.699202     0.007504
AU3527   AU        0.633086    0.720505    0.699170     0.007504
AU3528   AU        0.635436    0.757704    0.664844     0.007504
AU3529   AU        0.669983    0.719460    0.664779     0.007504
AU3530   AU        0.380833    0.807174    0.656888     0.007504
AU3531   AU        0.420991    0.809245    0.692312     0.007504
AU3532   AU        0.458452    0.801945    0.658699     0.007504
AU3533   AU        0.491426    0.799876    0.695532     0.007504
AU3534   AU        0.528302    0.798491    0.662147     0.007504
AU3535   AU        0.381380    0.117823    0.728001     0.007504
AU3536   AU        0.457768    0.111186    0.730539     0.007504
AU3537   AU        0.240478    0.196710    0.726224     0.007504
AU3538   AU        0.276349    0.158777    0.729032     0.007504
AU3539   AU        0.280892    0.192478    0.766705     0.007504
AU3540   AU        0.313911    0.191820    0.727280     0.007504
AU3541   AU        0.345904    0.153769    0.730695     0.007504
AU3542   AU        0.349992    0.189795    0.764003     0.007504
AU3543   AU        0.384936    0.151743    0.766083     0.007504
AU3544   AU        0.388914    0.187126    0.730524     0.007504
AU3545   AU        0.420666    0.150612    0.728495     0.007504
AU3546   AU        0.423285    0.186762    0.767249     0.007504
AU3547   AU        0.456445    0.148458    0.765910     0.007504
AU3548   AU        0.460959    0.185321    0.731909     0.007504
AU3549   AU        0.495874    0.147324    0.731219     0.007504
AU3550   AU        0.496111    0.181167    0.769026     0.007504
AU3551   AU        0.533104    0.183327    0.733490     0.007504
AU3552   AU        0.566004    0.143494    0.730771     0.007504
AU3553   AU        0.567632    0.177641    0.768902     0.007504
AU3554   AU        0.605306    0.176673    0.735292     0.007504
AU3555   AU        0.171582    0.273888    0.720628     0.007504
AU3556   AU        0.207379    0.234499    0.723248     0.007504
AU3557   AU        0.204040    0.271238    0.759758     0.007504
AU3558   AU        0.240624    0.232085    0.760487     0.007504
AU3559   AU        0.244864    0.268890    0.724626     0.007504
AU3560   AU        0.279310    0.230155    0.724672     0.007504
AU3561   AU        0.278843    0.265376    0.762123     0.007504
AU3562   AU        0.316008    0.227515    0.766989     0.007504
AU3563   AU        0.317069    0.263760    0.727408     0.007504
AU3564   AU        0.354802    0.226126    0.724141     0.007504
AU3565   AU        0.353670    0.261821    0.762888     0.007504
AU3566   AU        0.387879    0.220648    0.768036     0.007504
AU3567   AU        0.392482    0.259880    0.728047     0.007504
AU3568   AU        0.425290    0.219845    0.728044     0.007504
AU3569   AU        0.423235    0.258621    0.767735     0.007504
AU3570   AU        0.459677    0.221073    0.767287     0.007504
AU3571   AU        0.460770    0.256644    0.734055     0.007504
AU3572   AU        0.499034    0.218910    0.732701     0.007504
AU3573   AU        0.497721    0.254111    0.767910     0.007504
AU3574   AU        0.530497    0.215458    0.772411     0.007504
AU3575   AU        0.533584    0.252897    0.734301     0.007504
AU3576   AU        0.567270    0.215850    0.734529     0.007504
AU3577   AU        0.569331    0.251041    0.770304     0.007504
AU3578   AU        0.604876    0.213160    0.774172     0.007504
AU3579   AU        0.609869    0.246867    0.739237     0.007504
AU3580   AU        0.643991    0.210555    0.737798     0.007504
AU3581   AU        0.645095    0.248939    0.777731     0.007504
AU3582   AU        0.684186    0.246335    0.737932     0.007504
AU3583   AU        0.136385    0.314146    0.720309     0.007504
AU3584   AU        0.171009    0.309364    0.759114     0.007504
AU3585   AU        0.175646    0.343830    0.721224     0.007504
AU3586   AU        0.210501    0.309211    0.721735     0.007504
AU3587   AU        0.207880    0.342481    0.761961     0.007504
AU3588   AU        0.243701    0.304506    0.762531     0.007504
AU3589   AU        0.249637    0.340457    0.725255     0.007504
AU3590   AU        0.283938    0.300317    0.728412     0.007504
AU3591   AU        0.284297    0.336824    0.763483     0.007504
AU3592   AU        0.317995    0.299437    0.764102     0.007504
AU3593   AU        0.319390    0.336595    0.727160     0.007504
AU3594   AU        0.356738    0.297099    0.730054     0.007504
AU3595   AU        0.356500    0.334468    0.765702     0.007504
AU3596   AU        0.388755    0.298479    0.766329     0.007504
AU3597   AU        0.390429    0.332115    0.729153     0.007504
AU3598   AU        0.427004    0.295188    0.732125     0.007504
AU3599   AU        0.427504    0.334517    0.765911     0.007504
AU3600   AU        0.462371    0.292021    0.768855     0.007504
AU3601   AU        0.465274    0.329824    0.733709     0.007504
AU3602   AU        0.501577    0.295198    0.733865     0.007504
AU3603   AU        0.499812    0.328469    0.771556     0.007504
AU3604   AU        0.534194    0.290455    0.768267     0.007504
AU3605   AU        0.539446    0.327670    0.734817     0.007504
AU3606   AU        0.571907    0.286779    0.733646     0.007504
AU3607   AU        0.572176    0.325889    0.773855     0.007504
AU3608   AU        0.607008    0.284558    0.774559     0.007504
AU3609   AU        0.610707    0.321811    0.737636     0.007504
AU3610   AU        0.644312    0.283850    0.737347     0.007504
AU3611   AU        0.644129    0.321921    0.776944     0.007504
AU3612   AU        0.682914    0.284859    0.772102     0.007504
AU3613   AU        0.686830    0.319863    0.737112     0.007504
AU3614   AU        0.719006    0.281440    0.740475     0.007504
AU3615   AU        0.105062    0.419788    0.722549     0.007504
AU3616   AU        0.138862    0.384170    0.720978     0.007504
AU3617   AU        0.141475    0.416918    0.759052     0.007504
AU3618   AU        0.176108    0.380587    0.757841     0.007504
AU3619   AU        0.178727    0.416482    0.723805     0.007504
AU3620   AU        0.213571    0.378286    0.723135     0.007504
AU3621   AU        0.213804    0.412706    0.760697     0.007504
AU3622   AU        0.247625    0.373689    0.763759     0.007504
AU3623   AU        0.248475    0.411198    0.724141     0.007504
AU3624   AU        0.285246    0.376741    0.723770     0.007504
AU3625   AU        0.283121    0.409482    0.763628     0.007504
AU3626   AU        0.320354    0.373701    0.766950     0.007504
AU3627   AU        0.322020    0.410365    0.727308     0.007504
AU3628   AU        0.356343    0.371675    0.729313     0.007504
AU3629   AU        0.357751    0.405154    0.765566     0.007504
AU3630   AU        0.393039    0.369286    0.764539     0.007504
AU3631   AU        0.397839    0.404711    0.729204     0.007504
AU3632   AU        0.429920    0.368947    0.730869     0.007504
AU3633   AU        0.434046    0.403493    0.767965     0.007504
AU3634   AU        0.465361    0.364593    0.769789     0.007504
AU3635   AU        0.471797    0.404206    0.732046     0.007504
AU3636   AU        0.502069    0.362629    0.731521     0.007504
AU3637   AU        0.506645    0.400505    0.770445     0.007504
AU3638   AU        0.539485    0.360734    0.770840     0.007504
AU3639   AU        0.541054    0.395228    0.733319     0.007504
AU3640   AU        0.576939    0.358788    0.735825     0.007504
AU3641   AU        0.578744    0.395194    0.770772     0.007504
AU3642   AU        0.612814    0.359554    0.771925     0.007504
AU3643   AU        0.615726    0.393524    0.736567     0.007504
AU3644   AU        0.650008    0.355532    0.738920     0.007504
AU3645   AU        0.650873    0.391819    0.772886     0.007504
AU3646   AU        0.686373    0.352292    0.775348     0.007504
AU3647   AU        0.688485    0.388166    0.737554     0.007504
AU3648   AU        0.723751    0.353984    0.734628     0.007504
AU3649   AU        0.724886    0.386414    0.774192     0.007504
AU3650   AU        0.760840    0.386511    0.737204     0.007504
AU3651   AU        0.111721    0.495375    0.725724     0.007504
AU3652   AU        0.141549    0.455547    0.722809     0.007504
AU3653   AU        0.147068    0.494022    0.764988     0.007504
AU3654   AU        0.179490    0.453677    0.760099     0.007504
AU3655   AU        0.181348    0.488234    0.726681     0.007504
AU3656   AU        0.215947    0.449318    0.724864     0.007504
AU3657   AU        0.218672    0.487150    0.763057     0.007504
AU3658   AU        0.250920    0.448068    0.762593     0.007504
AU3659   AU        0.254367    0.483550    0.727952     0.007504
AU3660   AU        0.289533    0.445038    0.727647     0.007504
AU3661   AU        0.288372    0.482011    0.765329     0.007504
AU3662   AU        0.321313    0.442067    0.764594     0.007504
AU3663   AU        0.326809    0.480956    0.730053     0.007504
AU3664   AU        0.362354    0.441023    0.730998     0.007504
AU3665   AU        0.364474    0.476128    0.767870     0.007504
AU3666   AU        0.397462    0.438171    0.766110     0.007504
AU3667   AU        0.401455    0.473455    0.731463     0.007504
AU3668   AU        0.435442    0.439263    0.730163     0.007504
AU3669   AU        0.435101    0.475275    0.767656     0.007504
AU3670   AU        0.472355    0.437763    0.768671     0.007504
AU3671   AU        0.472759    0.474900    0.734277     0.007504
AU3672   AU        0.507996    0.436604    0.734229     0.007504
AU3673   AU        0.509835    0.474636    0.770881     0.007504
AU3674   AU        0.543859    0.435254    0.770131     0.007504
AU3675   AU        0.546514    0.469996    0.734125     0.007504
AU3676   AU        0.578974    0.428741    0.733616     0.007504
AU3677   AU        0.579788    0.470573    0.770173     0.007504
AU3678   AU        0.615992    0.430902    0.770282     0.007504
AU3679   AU        0.619455    0.463855    0.733715     0.007504
AU3680   AU        0.656038    0.429021    0.736622     0.007504
AU3681   AU        0.656716    0.465752    0.775084     0.007504
AU3682   AU        0.690674    0.424207    0.774282     0.007504
AU3683   AU        0.693114    0.463736    0.740366     0.007504
AU3684   AU        0.725410    0.425031    0.738035     0.007504
AU3685   AU        0.729055    0.455128    0.781538     0.007504
AU3686   AU        0.764461    0.457683    0.743830     0.007504
AU3687   AU        0.147641    0.528140    0.723117     0.007504
AU3688   AU        0.182699    0.528480    0.762661     0.007504
AU3689   AU        0.187411    0.561695    0.723881     0.007504
AU3690   AU        0.218604    0.523050    0.728627     0.007504
AU3691   AU        0.220175    0.560672    0.762977     0.007504
AU3692   AU        0.254810    0.521113    0.763990     0.007504
AU3693   AU        0.258528    0.558357    0.726829     0.007504
AU3694   AU        0.290385    0.519229    0.728069     0.007504
AU3695   AU        0.293903    0.554150    0.763999     0.007504
AU3696   AU        0.330138    0.520486    0.767370     0.007504
AU3697   AU        0.333060    0.552744    0.728370     0.007504
AU3698   AU        0.367219    0.513706    0.731932     0.007504
AU3699   AU        0.372941    0.549701    0.765612     0.007504
AU3700   AU        0.401212    0.511274    0.770009     0.007504
AU3701   AU        0.406882    0.548931    0.728702     0.007504
AU3702   AU        0.440561    0.512551    0.732522     0.007504
AU3703   AU        0.436970    0.547467    0.770714     0.007504
AU3704   AU        0.475038    0.510029    0.771262     0.007504
AU3705   AU        0.475923    0.546499    0.731727     0.007504
AU3706   AU        0.511261    0.507414    0.734237     0.007504
AU3707   AU        0.512785    0.544239    0.769464     0.007504
AU3708   AU        0.546276    0.507915    0.771026     0.007504
AU3709   AU        0.551486    0.542698    0.733641     0.007504
AU3710   AU        0.588110    0.501264    0.731569     0.007504
AU3711   AU        0.584167    0.539063    0.769082     0.007504
AU3712   AU        0.622553    0.497696    0.772579     0.007504
AU3713   AU        0.622789    0.539522    0.731974     0.007504
AU3714   AU        0.657017    0.497555    0.734905     0.007504
AU3715   AU        0.657272    0.534766    0.770833     0.007504
AU3716   AU        0.695230    0.500855    0.779059     0.007504
AU3717   AU        0.698048    0.532021    0.741036     0.007504
AU3718   AU        0.730995    0.494246    0.742419     0.007504
AU3719   AU        0.149670    0.600292    0.725746     0.007504
AU3720   AU        0.185273    0.596996    0.760904     0.007504
AU3721   AU        0.191184    0.632221    0.725796     0.007504
AU3722   AU        0.226074    0.595103    0.723365     0.007504
AU3723   AU        0.226413    0.628736    0.763231     0.007504
AU3724   AU        0.259904    0.594627    0.763148     0.007504
AU3725   AU        0.265802    0.631238    0.728830     0.007504
AU3726   AU        0.295748    0.591123    0.727671     0.007504
AU3727   AU        0.300703    0.629274    0.763090     0.007504
AU3728   AU        0.331120    0.589439    0.764063     0.007504
AU3729   AU        0.338242    0.626840    0.727954     0.007504
AU3730   AU        0.370847    0.587981    0.731669     0.007504
AU3731   AU        0.369516    0.625443    0.764771     0.007504
AU3732   AU        0.406145    0.588075    0.765982     0.007504
AU3733   AU        0.409973    0.621779    0.727994     0.007504
AU3734   AU        0.443379    0.582508    0.728848     0.007504
AU3735   AU        0.444810    0.618406    0.768941     0.007504
AU3736   AU        0.475378    0.579918    0.767827     0.007504
AU3737   AU        0.480070    0.618242    0.731587     0.007504
AU3738   AU        0.515233    0.579912    0.733759     0.007504
AU3739   AU        0.516220    0.617892    0.769521     0.007504
AU3740   AU        0.548580    0.579588    0.771409     0.007504
AU3741   AU        0.552705    0.615614    0.733346     0.007504
AU3742   AU        0.586628    0.575859    0.734404     0.007504
AU3743   AU        0.588696    0.612814    0.771776     0.007504
AU3744   AU        0.625028    0.576083    0.770419     0.007504
AU3745   AU        0.623548    0.610870    0.732857     0.007504
AU3746   AU        0.661384    0.571041    0.735911     0.007504
AU3747   AU        0.661744    0.608648    0.772937     0.007504
AU3748   AU        0.693857    0.569337    0.774383     0.007504
AU3749   AU        0.698226    0.605052    0.738558     0.007504
AU3750   AU        0.732576    0.568618    0.739440     0.007504
AU3751   AU        0.229231    0.667874    0.726745     0.007504
AU3752   AU        0.265616    0.667132    0.761677     0.007504
AU3753   AU        0.268289    0.705032    0.723991     0.007504
AU3754   AU        0.304171    0.665264    0.725214     0.007504
AU3755   AU        0.301864    0.702047    0.762659     0.007504
AU3756   AU        0.337414    0.663003    0.763717     0.007504
AU3757   AU        0.340205    0.698158    0.725963     0.007504
AU3758   AU        0.376022    0.660110    0.728447     0.007504
AU3759   AU        0.373576    0.698527    0.766268     0.007504
AU3760   AU        0.407761    0.659285    0.767122     0.007504
AU3761   AU        0.412160    0.695920    0.731042     0.007504
AU3762   AU        0.444175    0.657919    0.731869     0.007504
AU3763   AU        0.446296    0.694641    0.766595     0.007504
AU3764   AU        0.478015    0.656154    0.770298     0.007504
AU3765   AU        0.482769    0.692010    0.733741     0.007504
AU3766   AU        0.519682    0.653479    0.735493     0.007504
AU3767   AU        0.518122    0.690332    0.767389     0.007504
AU3768   AU        0.555291    0.652641    0.771594     0.007504
AU3769   AU        0.555883    0.688746    0.735202     0.007504
AU3770   AU        0.591955    0.649932    0.736555     0.007504
AU3771   AU        0.592761    0.686666    0.772722     0.007504
AU3772   AU        0.625762    0.647209    0.768935     0.007504
AU3773   AU        0.628997    0.686581    0.736493     0.007504
AU3774   AU        0.665374    0.644748    0.736539     0.007504
AU3775   AU        0.307892    0.737972    0.725169     0.007504
AU3776   AU        0.375297    0.734084    0.729721     0.007504
AU3777   AU        0.411402    0.733031    0.766651     0.007504
AU3778   AU        0.412895    0.770481    0.728408     0.007504
AU3779   AU        0.447847    0.733202    0.729670     0.007504
AU3780   AU        0.482775    0.727284    0.768801     0.007504
AU3781   AU        0.484065    0.765094    0.730951     0.007504
AU3782   AU        0.521465    0.728592    0.734580     0.007504
AU3783   AU        0.595691    0.721796    0.735034     0.007504
AU3784   AU        0.387499    0.185662    0.804082     0.007504
AU3785   AU        0.457366    0.185522    0.805716     0.007504
AU3786   AU        0.243020    0.269227    0.796697     0.007504
AU3787   AU        0.313844    0.263894    0.801278     0.007504
AU3788   AU        0.351200    0.221981    0.807334     0.007504
AU3789   AU        0.350166    0.260484    0.840346     0.007504
AU3790   AU        0.389378    0.261918    0.802326     0.007504
AU3791   AU        0.423500    0.223679    0.804283     0.007504
AU3792   AU        0.424915    0.256726    0.843131     0.007504
AU3793   AU        0.459583    0.259529    0.803545     0.007504
AU3794   AU        0.495528    0.218171    0.804546     0.007504
AU3795   AU        0.492463    0.253311    0.840311     0.007504
AU3796   AU        0.532082    0.255644    0.806791     0.007504
AU3797   AU        0.600037    0.246309    0.812950     0.007504
AU3798   AU        0.245335    0.338438    0.800022     0.007504
AU3799   AU        0.281604    0.301170    0.797650     0.007504
AU3800   AU        0.283580    0.336854    0.835626     0.007504
AU3801   AU        0.315203    0.296729    0.837812     0.007504
AU3802   AU        0.319913    0.335689    0.799280     0.007504
AU3803   AU        0.352981    0.297005    0.802895     0.007504
AU3804   AU        0.350768    0.334848    0.837217     0.007504
AU3805   AU        0.387621    0.296861    0.840589     0.007504
AU3806   AU        0.389265    0.332880    0.803438     0.007504
AU3807   AU        0.425127    0.295613    0.807046     0.007504
AU3808   AU        0.425905    0.329892    0.842121     0.007504
AU3809   AU        0.461145    0.293555    0.841156     0.007504
AU3810   AU        0.463410    0.327732    0.806113     0.007504
AU3811   AU        0.497929    0.292048    0.808181     0.007504
AU3812   AU        0.501263    0.329043    0.841093     0.007504
AU3813   AU        0.532720    0.288932    0.844898     0.007504
AU3814   AU        0.536465    0.323706    0.806034     0.007504
AU3815   AU        0.571158    0.288765    0.807704     0.007504
AU3816   AU        0.571959    0.326045    0.849896     0.007504
AU3817   AU        0.608860    0.322316    0.810388     0.007504
AU3818   AU        0.178046    0.416761    0.795538     0.007504
AU3819   AU        0.210594    0.379724    0.799540     0.007504
AU3820   AU        0.248244    0.371869    0.834421     0.007504
AU3821   AU        0.248535    0.412144    0.799343     0.007504
AU3822   AU        0.284098    0.373406    0.802291     0.007504
AU3823   AU        0.281183    0.411297    0.838589     0.007504
AU3824   AU        0.317357    0.374203    0.838174     0.007504
AU3825   AU        0.317865    0.408511    0.801766     0.007504
AU3826   AU        0.356689    0.371148    0.802849     0.007504
AU3827   AU        0.357188    0.406107    0.839643     0.007504
AU3828   AU        0.390383    0.368716    0.841882     0.007504
AU3829   AU        0.395353    0.405026    0.802114     0.007504
AU3830   AU        0.431358    0.367025    0.804613     0.007504
AU3831   AU        0.429696    0.404303    0.841087     0.007504
AU3832   AU        0.465214    0.366116    0.841253     0.007504
AU3833   AU        0.469584    0.401557    0.805938     0.007504
AU3834   AU        0.505200    0.363361    0.806184     0.007504
AU3835   AU        0.504561    0.399917    0.843353     0.007504
AU3836   AU        0.539647    0.363835    0.846584     0.007504
AU3837   AU        0.542184    0.397998    0.808323     0.007504
AU3838   AU        0.574830    0.360091    0.808222     0.007504
AU3839   AU        0.577122    0.396837    0.846158     0.007504
AU3840   AU        0.611099    0.360164    0.844821     0.007504
AU3841   AU        0.612756    0.394520    0.807019     0.007504
AU3842   AU        0.647570    0.356069    0.810067     0.007504
AU3843   AU        0.684252    0.391748    0.813093     0.007504
AU3844   AU        0.183723    0.487646    0.798746     0.007504
AU3845   AU        0.215063    0.449390    0.798272     0.007504
AU3846   AU        0.248310    0.450280    0.838110     0.007504
AU3847   AU        0.252045    0.483748    0.799638     0.007504
AU3848   AU        0.285423    0.448647    0.801622     0.007504
AU3849   AU        0.285975    0.483626    0.837629     0.007504
AU3850   AU        0.322094    0.443848    0.838348     0.007504
AU3851   AU        0.322324    0.481771    0.803774     0.007504
AU3852   AU        0.357389    0.438964    0.804219     0.007504
AU3853   AU        0.360971    0.481141    0.839454     0.007504
AU3854   AU        0.395900    0.440836    0.837696     0.007504
AU3855   AU        0.397976    0.476303    0.805026     0.007504
AU3856   AU        0.434016    0.439908    0.804099     0.007504
AU3857   AU        0.434863    0.476135    0.840649     0.007504
AU3858   AU        0.468416    0.435841    0.839326     0.007504
AU3859   AU        0.473642    0.473348    0.805173     0.007504
AU3860   AU        0.508159    0.437956    0.805315     0.007504
AU3861   AU        0.507034    0.470631    0.842410     0.007504
AU3862   AU        0.542190    0.434141    0.843072     0.007504
AU3863   AU        0.544608    0.471691    0.809292     0.007504
AU3864   AU        0.577240    0.432810    0.806993     0.007504
AU3865   AU        0.578844    0.467606    0.845343     0.007504
AU3866   AU        0.613965    0.431176    0.844425     0.007504
AU3867   AU        0.614487    0.465924    0.808248     0.007504
AU3868   AU        0.650642    0.428402    0.808528     0.007504
AU3869   AU        0.690303    0.461211    0.811869     0.007504
AU3870   AU        0.218447    0.525543    0.799525     0.007504
AU3871   AU        0.254565    0.523382    0.838310     0.007504
AU3872   AU        0.256074    0.556916    0.797889     0.007504
AU3873   AU        0.291146    0.520423    0.800829     0.007504
AU3874   AU        0.292039    0.558404    0.836097     0.007504
AU3875   AU        0.323035    0.515895    0.843858     0.007504
AU3876   AU        0.330815    0.555033    0.803571     0.007504
AU3877   AU        0.362609    0.515417    0.803986     0.007504
AU3878   AU        0.367145    0.548696    0.840282     0.007504
AU3879   AU        0.401042    0.512587    0.843071     0.007504
AU3880   AU        0.400550    0.549981    0.804752     0.007504
AU3881   AU        0.434056    0.509982    0.804406     0.007504
AU3882   AU        0.437707    0.548731    0.843926     0.007504
AU3883   AU        0.472812    0.507514    0.841057     0.007504
AU3884   AU        0.472670    0.545463    0.808403     0.007504
AU3885   AU        0.509244    0.507939    0.808764     0.007504
AU3886   AU        0.509316    0.542830    0.844071     0.007504
AU3887   AU        0.545169    0.505049    0.845201     0.007504
AU3888   AU        0.548338    0.540819    0.806909     0.007504
AU3889   AU        0.582650    0.504315    0.806973     0.007504
AU3890   AU        0.582140    0.539175    0.841420     0.007504
AU3891   AU        0.617192    0.502627    0.843600     0.007504
AU3892   AU        0.621815    0.535842    0.803825     0.007504
AU3893   AU        0.657865    0.501952    0.813597     0.007504
AU3894   AU        0.262834    0.632077    0.798858     0.007504
AU3895   AU        0.296085    0.594136    0.801289     0.007504
AU3896   AU        0.332032    0.588835    0.840060     0.007504
AU3897   AU        0.336258    0.627027    0.801819     0.007504
AU3898   AU        0.367918    0.588311    0.803529     0.007504
AU3899   AU        0.370098    0.626674    0.840279     0.007504
AU3900   AU        0.403413    0.588915    0.842695     0.007504
AU3901   AU        0.407898    0.620063    0.802065     0.007504
AU3902   AU        0.441778    0.583101    0.807148     0.007504
AU3903   AU        0.440105    0.622736    0.838259     0.007504
AU3904   AU        0.479368    0.582129    0.841663     0.007504
AU3905   AU        0.478188    0.617787    0.805400     0.007504
AU3906   AU        0.513077    0.580228    0.805833     0.007504
AU3907   AU        0.511029    0.620044    0.844685     0.007504
AU3908   AU        0.548237    0.577460    0.840356     0.007504
AU3909   AU        0.551209    0.615101    0.808739     0.007504
AU3910   AU        0.586925    0.576872    0.807277     0.007504
AU3911   AU        0.623195    0.612700    0.806890     0.007504
AU3912   AU        0.374078    0.661295    0.805242     0.007504
AU3913   AU        0.410025    0.697483    0.801490     0.007504
AU3914   AU        0.441212    0.656696    0.802773     0.007504
AU3915   AU        0.481775    0.691378    0.805003     0.007504
AU3916   AU        0.516047    0.654501    0.804874     0.007504
AU3917   AU        0.393049    0.405017    0.874846     0.007504
AU3918   AU        0.427378    0.364807    0.875444     0.007504
AU3919   AU        0.464051    0.402235    0.877354     0.007504
AU3920   AU        0.358422    0.442427    0.872594     0.007504
AU3921   AU        0.395218    0.474580    0.874722     0.007504
AU3922   AU        0.431087    0.440610    0.877362     0.007504
AU3923   AU        0.472421    0.471019    0.878292     0.007504
AU3924   AU        0.503091    0.431765    0.878496     0.007504
AU3925   AU        0.437133    0.507079    0.878226     0.007504
