data_00001
_audit_creation_method   'DISCUS'

_data_chemical_name_common 'Cu.cell Pearson1985'

_cell_length_a             54.2220
_cell_length_b             61.4516
_cell_length_c             54.2220
_cell_angle_alpha     90.0000
_cell_angle_beta      90.0000
_cell_angle_gamma     90.0000

_symmetry_space_group_name_H-M   'P1              '

loop_
_atom_site_label
_atom_site_symbol
_atom_site_fract_x
_atom_site_fract_y
_atom_site_fract_z
_atom_site_u_iso_or_equiv
NI1   NI        0.390221    0.336900    0.031447     0.004307
NI2   NI        0.418152    0.304274    0.032077     0.004307
NI3   NI        0.454951    0.333467    0.032441     0.004307
NI4   NI        0.491841    0.305595    0.032203     0.004307
NI5   NI        0.523816    0.335475    0.031882     0.004307
NI6   NI        0.322526    0.397475    0.022807     0.004307
CU7   CU        0.347867    0.363699    0.033457     0.006663
CU8   CU        0.384694    0.394373    0.029762     0.006663
NI9   NI        0.419865    0.366257    0.032452     0.004307
CU10   CU        0.456816    0.395802    0.028654     0.006663
NI11   NI        0.490746    0.365253    0.033036     0.004307
NI12   NI        0.527743    0.400066    0.030782     0.004307
NI13   NI        0.560795    0.367137    0.030437     0.004307
NI14   NI        0.562499    0.398495    0.000667     0.004307
NI15   NI        0.314170    0.465030    0.035452     0.004307
NI16   NI        0.355327    0.425816    0.028534     0.004307
NI17   NI        0.388272    0.461003    0.028395     0.004307
CU18   CU        0.423142    0.431928    0.027043     0.006663
CU19   CU        0.457622    0.461755    0.032520     0.006663
NI20   NI        0.492737    0.430282    0.033434     0.004307
NI21   NI        0.527794    0.460565    0.030235     0.004307
NI22   NI        0.561958    0.428817    0.032308     0.004307
NI23   NI        0.596199    0.461560    0.034147     0.004307
NI24   NI        0.352830    0.493110    0.030391     0.004307
NI25   NI        0.388477    0.522242    0.034344     0.004307
CU26   CU        0.425075    0.492655    0.032644     0.006663
NI27   NI        0.457590    0.520790    0.032566     0.004307
NI28   NI        0.491034    0.489748    0.033757     0.004307
NI29   NI        0.506856    0.522074    0.015526     0.004307
NI30   NI        0.564508    0.489049    0.034943     0.004307
NI31   NI        0.423251    0.550570    0.033975     0.004307
NI32   NI        0.488058    0.554817    0.033581     0.004307
NI33   NI        0.313123    0.214795    0.099761     0.004307
NI34   NI        0.386661    0.216682    0.096766     0.004307
NI35   NI        0.421213    0.186993    0.095810     0.004307
CU36   CU        0.456380    0.210678    0.097878     0.006663
NI37   NI        0.491814    0.183734    0.095191     0.004307
NI38   NI        0.528475    0.213242    0.097086     0.004307
CU39   CU        0.594670    0.213469    0.097636     0.006663
NI40   NI        0.247212    0.274784    0.097216     0.004307
NI41   NI        0.281402    0.245945    0.095250     0.004307
NI42   NI        0.314689    0.274577    0.097377     0.004307
NI43   NI        0.350779    0.243583    0.097680     0.004307
NI44   NI        0.349553    0.273766    0.064551     0.004307
NI45   NI        0.386575    0.244738    0.063590     0.004307
NI46   NI        0.384484    0.275750    0.095202     0.004307
NI47   NI        0.420495    0.245945    0.096031     0.004307
NI48   NI        0.421820    0.272121    0.062818     0.004307
NI49   NI        0.458092    0.243243    0.065878     0.004307
NI50   NI        0.453658    0.274072    0.094577     0.004307
NI51   NI        0.494539    0.240174    0.097073     0.004307
NI52   NI        0.490009    0.273407    0.063936     0.004307
NI53   NI        0.527000    0.243050    0.065824     0.004307
NI54   NI        0.528523    0.273930    0.094029     0.004307
NI55   NI        0.561302    0.242613    0.095255     0.004307
NI56   NI        0.559628    0.274783    0.063210     0.004307
NI57   NI        0.594522    0.274020    0.095497     0.004307
NI58   NI        0.628228    0.243829    0.097340     0.004307
NI59   NI        0.659080    0.275054    0.095270     0.004307
NI60   NI        0.212756    0.308607    0.094377     0.004307
NI61   NI        0.246115    0.335974    0.096161     0.004307
NI62   NI        0.281526    0.303864    0.095831     0.004307
NI63   NI        0.276512    0.334779    0.064899     0.004307
NI64   NI        0.315822    0.304071    0.064651     0.004307
CU65   CU        0.311965    0.336704    0.095465     0.006663
CU66   CU        0.350458    0.305173    0.093242     0.006663
NI67   NI        0.352085    0.335526    0.063374     0.004307
NI68   NI        0.385408    0.308262    0.063538     0.004307
NI69   NI        0.386313    0.335624    0.095007     0.004307
NI70   NI        0.418522    0.303709    0.094812     0.004307
NI71   NI        0.421754    0.334780    0.064247     0.004307
NI72   NI        0.454626    0.303713    0.064275     0.004307
NI73   NI        0.456795    0.337393    0.094207     0.004307
NI74   NI        0.491253    0.306363    0.093772     0.004307
NI75   NI        0.490726    0.335237    0.063071     0.004307
NI76   NI        0.525320    0.303629    0.062978     0.004307
CU77   CU        0.525729    0.336306    0.092924     0.006663
NI78   NI        0.563182    0.304603    0.094485     0.004307
NI79   NI        0.561460    0.338256    0.063036     0.004307
CU80   CU        0.596414    0.304162    0.064986     0.006663
NI81   NI        0.596152    0.335664    0.093075     0.004307
CU82   CU        0.631310    0.305600    0.096520     0.006663
NI83   NI        0.629247    0.334837    0.063622     0.004307
NI84   NI        0.667507    0.337737    0.094360     0.004307
NI85   NI        0.702262    0.307288    0.094224     0.004307
CU86   CU        0.175567    0.398245    0.099453     0.006663
NI87   NI        0.209068    0.367234    0.098006     0.004307
NI88   NI        0.241476    0.362769    0.064100     0.004307
NI89   NI        0.244395    0.397491    0.097219     0.004307
NI90   NI        0.277350    0.365541    0.094648     0.004307
CU91   CU        0.287567    0.399424    0.053879     0.006663
NI92   NI        0.310775    0.366346    0.062943     0.004307
CU93   CU        0.316638    0.396970    0.088850     0.006663
NI94   NI        0.350014    0.368519    0.092084     0.004307
NI95   NI        0.350816    0.397888    0.060840     0.004307
CU96   CU        0.386665    0.365091    0.063362     0.006663
CU97   CU        0.386867    0.399043    0.089542     0.006663
NI98   NI        0.422323    0.367450    0.092535     0.004307
CU99   CU        0.422591    0.397775    0.058909     0.006663
NI100   NI        0.455531    0.369094    0.061355     0.004307
NI101   NI        0.456451    0.399188    0.092957     0.004307
NI102   NI        0.492951    0.366814    0.092535     0.004307
NI103   NI        0.491349    0.396873    0.060345     0.004307
NI104   NI        0.526275    0.366592    0.060209     0.004307
NI105   NI        0.523747    0.399063    0.093508     0.004307
NI106   NI        0.561854    0.368733    0.093960     0.004307
NI107   NI        0.559814    0.397964    0.063070     0.004307
CU108   CU        0.593724    0.367227    0.064363     0.006663
CU109   CU        0.596393    0.397110    0.092656     0.006663
NI110   NI        0.628906    0.365718    0.092438     0.004307
NI111   NI        0.632341    0.400387    0.065519     0.004307
NI112   NI        0.666529    0.367651    0.065330     0.004307
NI113   NI        0.669413    0.399376    0.094028     0.004307
NI114   NI        0.699844    0.367225    0.093171     0.004307
CU115   CU        0.733287    0.398460    0.093382     0.006663
NI116   NI        0.176986    0.460148    0.097749     0.004307
NI117   NI        0.207597    0.429428    0.095648     0.004307
NI118   NI        0.244603    0.429187    0.066796     0.004307
NI119   NI        0.243313    0.463742    0.095972     0.004307
CU120   CU        0.283340    0.424632    0.087357     0.006663
NI121   NI        0.278447    0.463102    0.067335     0.004307
NI122   NI        0.320125    0.427293    0.056585     0.004307
NI123   NI        0.321182    0.459313    0.084197     0.004307
NI124   NI        0.353407    0.429963    0.089085     0.004307
CU125   CU        0.354073    0.458478    0.056147     0.006663
NI126   NI        0.387995    0.431021    0.059267     0.004307
NI127   NI        0.389085    0.459651    0.090508     0.004307
CU128   CU        0.422745    0.427368    0.094100     0.006663
NI129   NI        0.421193    0.459070    0.059902     0.004307
NI130   NI        0.456641    0.428289    0.060988     0.004307
NI131   NI        0.458436    0.459898    0.093731     0.004307
NI132   NI        0.491100    0.428313    0.093010     0.004307
NI133   NI        0.491844    0.460443    0.064778     0.004307
NI134   NI        0.527604    0.431503    0.061549     0.004307
CU135   CU        0.526320    0.458533    0.093871     0.006663
NI136   NI        0.558776    0.427384    0.093887     0.004307
CU137   CU        0.562968    0.459271    0.065043     0.006663
CU138   CU        0.598174    0.430787    0.063496     0.006663
NI139   NI        0.599724    0.461504    0.096864     0.004307
CU140   CU        0.633227    0.431179    0.096688     0.006663
NI141   NI        0.635107    0.459234    0.064567     0.004307
NI142   NI        0.666048    0.429322    0.062180     0.004307
CU143   CU        0.669277    0.461913    0.095326     0.006663
NI144   NI        0.698580    0.431375    0.094270     0.004307
NI145   NI        0.733303    0.460740    0.094705     0.004307
NI146   NI        0.208515    0.489969    0.097238     0.004307
NI147   NI        0.244705    0.494113    0.066022     0.004307
CU148   CU        0.242943    0.522828    0.096235     0.006663
NI149   NI        0.277980    0.495542    0.095448     0.004307
NI150   NI        0.279989    0.526050    0.067445     0.004307
NI151   NI        0.314825    0.496963    0.065169     0.004307
NI152   NI        0.314423    0.524694    0.095248     0.004307
NI153   NI        0.351360    0.492706    0.093852     0.004307
NI154   NI        0.350820    0.520944    0.062105     0.004307
NI155   NI        0.387847    0.488388    0.059184     0.004307
CU156   CU        0.387901    0.521106    0.091084     0.006663
NI157   NI        0.421094    0.489724    0.092737     0.004307
NI158   NI        0.424814    0.521558    0.064068     0.004307
NI159   NI        0.457726    0.490681    0.064027     0.004307
NI160   NI        0.458250    0.520899    0.095304     0.004307
NI161   NI        0.492079    0.491926    0.094491     0.004307
NI162   NI        0.490991    0.525299    0.063654     0.004307
NI163   NI        0.524376    0.492204    0.063953     0.004307
NI164   NI        0.527662    0.523339    0.093107     0.004307
NI165   NI        0.563162    0.491988    0.093184     0.004307
CU166   CU        0.561488    0.523393    0.062472     0.006663
NI167   NI        0.597234    0.489835    0.064502     0.004307
CU168   CU        0.597564    0.522184    0.095048     0.006663
NI169   NI        0.632825    0.492344    0.093511     0.004307
NI170   NI        0.633875    0.524701    0.065387     0.004307
NI171   NI        0.661876    0.493367    0.062051     0.004307
NI172   NI        0.665175    0.522231    0.098060     0.004307
NI173   NI        0.700993    0.491239    0.094872     0.004307
NI174   NI        0.211045    0.555859    0.097070     0.004307
CU175   CU        0.244675    0.584076    0.096710     0.006663
NI176   NI        0.279456    0.554452    0.097309     0.004307
CU177   CU        0.314342    0.554165    0.064403     0.006663
NI178   NI        0.316690    0.584632    0.095119     0.004307
NI179   NI        0.350966    0.552545    0.092917     0.004307
NI180   NI        0.351611    0.582735    0.062692     0.004307
CU181   CU        0.388892    0.551553    0.063117     0.006663
NI182   NI        0.389536    0.584145    0.096434     0.004307
NI183   NI        0.421807    0.552736    0.095275     0.004307
NI184   NI        0.423565    0.584294    0.063871     0.004307
NI185   NI        0.457514    0.552248    0.065578     0.004307
NI186   NI        0.457929    0.584436    0.094228     0.004307
NI187   NI        0.492600    0.553684    0.096629     0.004307
NI188   NI        0.491089    0.587893    0.062449     0.004307
NI189   NI        0.525629    0.552964    0.063240     0.004307
NI190   NI        0.525006    0.585669    0.093856     0.004307
NI191   NI        0.560978    0.553311    0.094420     0.004307
NI192   NI        0.558484    0.585338    0.064763     0.004307
NI193   NI        0.596083    0.553034    0.066996     0.004307
NI194   NI        0.592267    0.583882    0.096769     0.004307
NI195   NI        0.630859    0.554796    0.095978     0.004307
NI196   NI        0.664725    0.584577    0.098083     0.004307
NI197   NI        0.701083    0.556572    0.097441     0.004307
NI198   NI        0.278304    0.612611    0.094864     0.004307
NI199   NI        0.313378    0.641777    0.094064     0.004307
NI200   NI        0.350626    0.610427    0.095476     0.004307
NI201   NI        0.386160    0.614266    0.066705     0.004307
NI202   NI        0.386905    0.644036    0.095698     0.004307
NI203   NI        0.422169    0.613485    0.095087     0.004307
NI204   NI        0.455616    0.614650    0.064525     0.004307
NI205   NI        0.455494    0.645865    0.096918     0.004307
CU206   CU        0.491852    0.615170    0.094993     0.006663
CU207   CU        0.523314    0.616891    0.064219     0.006663
NI208   NI        0.524601    0.648537    0.095258     0.004307
NI209   NI        0.559346    0.614100    0.094630     0.004307
NI210   NI        0.597008    0.643581    0.096334     0.004307
NI211   NI        0.629619    0.614218    0.098773     0.004307
CU212   CU        0.421169    0.673597    0.096665     0.006663
NI213   NI        0.491956    0.674108    0.095007     0.004307
CU214   CU        0.318281    0.154436    0.165308     0.006663
NI215   NI        0.350362    0.126081    0.162594     0.004307
NI216   NI        0.349018    0.155757    0.129624     0.004307
NI217   NI        0.385687    0.154026    0.162387     0.004307
NI218   NI        0.420546    0.126670    0.160985     0.004307
NI219   NI        0.418947    0.157675    0.129168     0.004307
NI220   NI        0.456204    0.152244    0.159765     0.004307
NI221   NI        0.492025    0.124323    0.161327     0.004307
NI222   NI        0.493808    0.154564    0.128309     0.004307
NI223   NI        0.529174    0.152113    0.160409     0.004307
CU224   CU        0.563134    0.124358    0.164814     0.006663
NI225   NI        0.562969    0.152033    0.130747     0.004307
NI226   NI        0.597864    0.153296    0.163197     0.004307
CU227   CU        0.249591    0.215986    0.164492     0.006663
NI228   NI        0.279459    0.185963    0.161972     0.004307
NI229   NI        0.280410    0.217129    0.129878     0.004307
CU230   CU        0.316545    0.184984    0.129584     0.006663
NI231   NI        0.315217    0.212848    0.160864     0.004307
CU232   CU        0.349970    0.183556    0.161458     0.006663
CU233   CU        0.350311    0.211976    0.127730     0.006663
NI234   NI        0.385360    0.185543    0.129267     0.004307
CU235   CU        0.387154    0.211519    0.162450     0.006663
NI236   NI        0.421245    0.183592    0.163538     0.004307
NI237   NI        0.419729    0.214004    0.129692     0.004307
NI238   NI        0.456189    0.182064    0.130741     0.004307
NI239   NI        0.456983    0.214255    0.160469     0.004307
NI240   NI        0.493733    0.183436    0.161868     0.004307
NI241   NI        0.492560    0.211448    0.127262     0.004307
NI242   NI        0.528154    0.181644    0.129046     0.004307
NI243   NI        0.527379    0.212329    0.163671     0.004307
CU244   CU        0.562060    0.183586    0.161096     0.006663
NI245   NI        0.560304    0.213734    0.130441     0.004307
CU246   CU        0.593989    0.183602    0.128892     0.006663
CU247   CU        0.594753    0.211778    0.159543     0.006663
NI248   NI        0.628808    0.183776    0.161934     0.004307
CU249   CU        0.630098    0.214650    0.128534     0.006663
NI250   NI        0.664680    0.212703    0.158169     0.004307
NI251   NI        0.177599    0.274831    0.162627     0.004307
NI252   NI        0.214338    0.247593    0.161246     0.004307
NI253   NI        0.210669    0.275358    0.127831     0.004307
CU254   CU        0.247306    0.246418    0.130038     0.006663
NI255   NI        0.247785    0.276126    0.162022     0.004307
NI256   NI        0.280182    0.246465    0.162672     0.004307
NI257   NI        0.280449    0.275300    0.127834     0.004307
NI258   NI        0.316026    0.244387    0.128968     0.004307
CU259   CU        0.313733    0.273044    0.162474     0.006663
CU260   CU        0.348708    0.243822    0.159395     0.006663
NI261   NI        0.349878    0.273817    0.127176     0.004307
NI262   NI        0.385233    0.245927    0.127680     0.004307
NI263   NI        0.383445    0.274794    0.159200     0.004307
NI264   NI        0.422624    0.245460    0.161541     0.004307
NI265   NI        0.416892    0.273785    0.126850     0.004307
NI266   NI        0.458296    0.243434    0.128314     0.004307
NI267   NI        0.457472    0.276743    0.159462     0.004307
NI268   NI        0.490565    0.243049    0.159730     0.004307
NI269   NI        0.491338    0.273741    0.125705     0.004307
NI270   NI        0.528003    0.244343    0.127721     0.004307
NI271   NI        0.523613    0.272743    0.157946     0.004307
NI272   NI        0.561410    0.244674    0.159577     0.004307
NI273   NI        0.561618    0.272662    0.128593     0.004307
NI274   NI        0.595980    0.242369    0.127874     0.004307
NI275   NI        0.594412    0.269890    0.159648     0.004307
NI276   NI        0.631774    0.244884    0.161367     0.004307
CU277   CU        0.630631    0.274276    0.129333     0.006663
NI278   NI        0.663957    0.244474    0.127505     0.004307
NI279   NI        0.630549    0.289417    0.173437     0.004307
NI280   NI        0.702399    0.243389    0.160371     0.004307
CU281   CU        0.669132    0.273154    0.158646     0.006663
NI282   NI        0.737163    0.277302    0.161406     0.004307
NI283   NI        0.078875    0.334759    0.193167     0.004307
NI284   NI        0.146716    0.305765    0.161099     0.004307
NI285   NI        0.142471    0.338524    0.131211     0.004307
CU286   CU        0.177889    0.303930    0.129311     0.006663
NI287   NI        0.175258    0.336284    0.158836     0.004307
NI288   NI        0.210183    0.304378    0.160898     0.004307
NI289   NI        0.211485    0.335629    0.129151     0.004307
CU290   CU        0.243391    0.302758    0.126919     0.006663
NI291   NI        0.245598    0.332812    0.158477     0.004307
NI292   NI        0.282400    0.305287    0.158700     0.004307
NI293   NI        0.278986    0.337569    0.127336     0.004307
CU294   CU        0.315277    0.303271    0.127504     0.006663
NI295   NI        0.313981    0.333986    0.155632     0.004307
NI296   NI        0.348178    0.301969    0.160609     0.004307
NI297   NI        0.348998    0.336975    0.123603     0.004307
NI298   NI        0.381471    0.303374    0.124461     0.004307
NI299   NI        0.388736    0.342072    0.173744     0.004307
NI300   NI        0.424241    0.306156    0.160778     0.004307
NI301   NI        0.425514    0.336037    0.125711     0.004307
CU302   CU        0.459140    0.304474    0.125437     0.006663
NI303   NI        0.460200    0.334333    0.159076     0.004307
NI304   NI        0.492743    0.305548    0.157118     0.004307
CU305   CU        0.493745    0.334798    0.126790     0.006663
NI306   NI        0.525211    0.304657    0.124933     0.004307
NI307   NI        0.527711    0.336273    0.156017     0.004307
CU308   CU        0.559727    0.305924    0.154449     0.006663
NI309   NI        0.558507    0.336202    0.122157     0.004307
NI310   NI        0.594762    0.304526    0.124914     0.004307
CU311   CU        0.593899    0.335803    0.151914     0.006663
NI312   NI        0.631586    0.327730    0.170844     0.004307
NI313   NI        0.633712    0.337895    0.125765     0.004307
NI314   NI        0.666534    0.307136    0.124811     0.004307
CU315   CU        0.670696    0.338949    0.156954     0.006663
CU316   CU        0.701196    0.308503    0.157526     0.006663
CU317   CU        0.702909    0.337334    0.124656     0.006663
NI318   NI        0.737281    0.307156    0.130138     0.004307
NI319   NI        0.736549    0.339199    0.160196     0.004307
NI320   NI        0.768168    0.309632    0.162762     0.004307
NI321   NI        0.768722    0.337702    0.129164     0.004307
NI322   NI        0.801551    0.340357    0.165350     0.004307
NI323   NI        0.109045    0.399448    0.163424     0.004307
NI324   NI        0.142914    0.369233    0.161108     0.004307
NI325   NI        0.145711    0.398448    0.131721     0.004307
CU326   CU        0.175527    0.366453    0.129807     0.006663
NI327   NI        0.177707    0.398528    0.161596     0.004307
NI328   NI        0.209893    0.365743    0.160560     0.004307
NI329   NI        0.210352    0.398386    0.128355     0.004307
NI330   NI        0.245648    0.363415    0.128742     0.004307
NI331   NI        0.249389    0.396918    0.154147     0.004307
NI332   NI        0.281414    0.368012    0.154022     0.004307
NI333   NI        0.282100    0.398627    0.123523     0.004307
NI334   NI        0.314119    0.368514    0.121898     0.004307
CU335   CU        0.319332    0.401101    0.152986     0.006663
NI336   NI        0.356200    0.371226    0.174355     0.004307
NI337   NI        0.350952    0.402130    0.120760     0.004307
NI338   NI        0.384448    0.369356    0.119147     0.004307
NI339   NI        0.384508    0.397882    0.151006     0.004307
NI340   NI        0.429567    0.363290    0.161698     0.004307
CU341   CU        0.419686    0.397925    0.124069     0.006663
NI342   NI        0.455179    0.367849    0.126175     0.004307
CU343   CU        0.458838    0.398444    0.161943     0.006663
CU344   CU        0.491122    0.368293    0.157375     0.006663
NI345   NI        0.489952    0.399932    0.125965     0.004307
CU346   CU        0.526238    0.365919    0.124804     0.006663
NI347   NI        0.522616    0.395469    0.155637     0.004307
NI348   NI        0.561371    0.367145    0.154707     0.004307
NI349   NI        0.560574    0.397436    0.123970     0.004307
NI350   NI        0.596960    0.367848    0.123011     0.004307
NI351   NI        0.597564    0.397068    0.156298     0.004307
CU352   CU        0.630654    0.366230    0.155409     0.006663
NI353   NI        0.632976    0.395789    0.124450     0.004307
NI354   NI        0.669600    0.367089    0.124865     0.004307
NI355   NI        0.668693    0.396963    0.155244     0.004307
NI356   NI        0.702096    0.367493    0.156663     0.004307
CU357   CU        0.703227    0.399933    0.126495     0.006663
CU358   CU        0.735785    0.368597    0.126144     0.006663
NI359   NI        0.734570    0.398884    0.157669     0.004307
NI360   NI        0.769619    0.367849    0.158956     0.004307
NI361   NI        0.766190    0.397158    0.126751     0.004307
NI362   NI        0.801960    0.399980    0.160423     0.004307
NI363   NI        0.112900    0.462492    0.161375     0.004307
NI364   NI        0.143098    0.428935    0.160382     0.004307
NI365   NI        0.144483    0.461295    0.129126     0.004307
CU366   CU        0.177572    0.428719    0.128560     0.006663
NI367   NI        0.174893    0.462256    0.160349     0.004307
CU368   CU        0.208990    0.430182    0.160235     0.006663
NI369   NI        0.210535    0.460619    0.129358     0.004307
CU370   CU        0.240867    0.429192    0.128151     0.006663
NI371   NI        0.240221    0.462129    0.162303     0.004307
NI372   NI        0.284389    0.426378    0.174051     0.004307
CU373   CU        0.285447    0.456271    0.112087     0.006663
CU374   CU        0.318115    0.429429    0.118010     0.006663
NI375   NI        0.317444    0.457957    0.170447     0.004307
NI376   NI        0.350765    0.431492    0.151795     0.004307
NI377   NI        0.351752    0.457551    0.119257     0.004307
NI378   NI        0.385177    0.428409    0.121839     0.004307
CU379   CU        0.386294    0.458830    0.173239     0.006663
NI380   NI        0.423623    0.428293    0.157387     0.004307
NI381   NI        0.421812    0.459271    0.124334     0.004307
NI382   NI        0.456370    0.429080    0.124213     0.004307
NI383   NI        0.457119    0.461563    0.157320     0.004307
CU384   CU        0.495403    0.426042    0.164098     0.006663
NI385   NI        0.493470    0.461422    0.127340     0.004307
CU386   CU        0.522825    0.429425    0.126387     0.006663
NI387   NI        0.527220    0.462954    0.159102     0.004307
NI388   NI        0.558387    0.429310    0.150688     0.004307
NI389   NI        0.560020    0.461558    0.123494     0.004307
NI390   NI        0.595413    0.426801    0.124831     0.004307
CU391   CU        0.594020    0.459632    0.151970     0.006663
NI392   NI        0.620087    0.428181    0.171963     0.004307
NI393   NI        0.636494    0.462871    0.126744     0.004307
NI394   NI        0.668510    0.429145    0.127058     0.004307
NI395   NI        0.670133    0.465230    0.158969     0.004307
NI396   NI        0.701473    0.430126    0.160212     0.004307
NI397   NI        0.703691    0.462641    0.127262     0.004307
NI398   NI        0.734590    0.429402    0.128180     0.004307
NI399   NI        0.737179    0.461575    0.160444     0.004307
NI400   NI        0.767272    0.428113    0.157709     0.004307
NI401   NI        0.767198    0.462677    0.128522     0.004307
NI402   NI        0.800238    0.462722    0.162466     0.004307
NI403   NI        0.109547    0.525221    0.163105     0.004307
NI404   NI        0.144421    0.492982    0.158145     0.004307
CU405   CU        0.144345    0.523664    0.129715     0.006663
CU406   CU        0.176502    0.490585    0.128069     0.006663
NI407   NI        0.177702    0.523170    0.159034     0.004307
NI408   NI        0.209466    0.491796    0.161208     0.004307
NI409   NI        0.209271    0.522760    0.127516     0.004307
NI410   NI        0.240973    0.495178    0.127909     0.004307
NI411   NI        0.243685    0.523337    0.160376     0.004307
NI412   NI        0.285797    0.487506    0.179947     0.004307
NI413   NI        0.278084    0.523623    0.126013     0.004307
NI414   NI        0.287216    0.487974    0.137218     0.004307
NI415   NI        0.317333    0.521369    0.174832     0.004307
NI416   NI        0.349958    0.486702    0.174599     0.004307
NI417   NI        0.353615    0.522075    0.124600     0.004307
CU418   CU        0.387046    0.493218    0.121658     0.006663
NI419   NI        0.389325    0.523067    0.153686     0.004307
CU420   CU        0.422378    0.492497    0.154821     0.006663
NI421   NI        0.422356    0.521098    0.124879     0.004307
NI422   NI        0.458487    0.491427    0.125767     0.004307
NI423   NI        0.461133    0.522471    0.159230     0.004307
CU424   CU        0.492084    0.493001    0.158422     0.006663
CU425   CU        0.494509    0.522481    0.126841     0.006663
CU426   CU        0.525700    0.492968    0.125526     0.006663
NI427   NI        0.528104    0.522313    0.158586     0.004307
NI428   NI        0.563215    0.491785    0.154335     0.004307
CU429   CU        0.562702    0.523963    0.125566     0.006663
NI430   NI        0.599055    0.492059    0.126214     0.004307
CU431   CU        0.597626    0.521794    0.162135     0.006663
NI432   NI        0.633745    0.493856    0.158755     0.004307
CU433   CU        0.631045    0.523445    0.127890     0.006663
CU434   CU        0.667599    0.493395    0.127634     0.006663
NI435   NI        0.666882    0.525318    0.160712     0.004307
NI436   NI        0.702806    0.494006    0.158482     0.004307
NI437   NI        0.701396    0.524614    0.126611     0.004307
NI438   NI        0.734817    0.491944    0.124936     0.004307
CU439   CU        0.733443    0.525775    0.161569     0.006663
NI440   NI        0.767554    0.494116    0.158367     0.004307
NI441   NI        0.765542    0.525962    0.130161     0.004307
NI442   NI        0.798709    0.524841    0.161172     0.004307
NI443   NI        0.145039    0.553881    0.162800     0.004307
NI444   NI        0.177525    0.551897    0.126270     0.004307
NI445   NI        0.177991    0.582771    0.159736     0.004307
NI446   NI        0.208827    0.552802    0.159030     0.004307
NI447   NI        0.211785    0.582851    0.129353     0.004307
NI448   NI        0.244487    0.552738    0.126436     0.004307
CU449   CU        0.246289    0.579250    0.160929     0.006663
CU450   CU        0.281714    0.552373    0.177161     0.006663
NI451   NI        0.281403    0.584766    0.126269     0.004307
CU452   CU        0.313982    0.556209    0.124703     0.006663
NI453   NI        0.312463    0.586122    0.167279     0.004307
CU454   CU        0.349260    0.553579    0.153691     0.006663
NI455   NI        0.346964    0.591452    0.135745     0.004307
NI456   NI        0.386853    0.550622    0.123525     0.004307
NI457   NI        0.386155    0.579616    0.152712     0.004307
NI458   NI        0.421853    0.550958    0.155083     0.004307
NI459   NI        0.424848    0.582317    0.126957     0.004307
CU460   CU        0.456441    0.553494    0.126049     0.006663
NI461   NI        0.459405    0.583852    0.156863     0.004307
NI462   NI        0.493037    0.553161    0.158263     0.004307
NI463   NI        0.494463    0.585913    0.127392     0.004307
NI464   NI        0.527766    0.553248    0.129740     0.004307
NI465   NI        0.525624    0.583005    0.160196     0.004307
CU466   CU        0.562803    0.554070    0.159423     0.006663
NI467   NI        0.559645    0.584273    0.127184     0.004307
NI468   NI        0.596297    0.552088    0.128114     0.004307
NI469   NI        0.595197    0.584698    0.159214     0.004307
NI470   NI        0.633758    0.553201    0.161431     0.004307
NI471   NI        0.629916    0.585938    0.127241     0.004307
CU472   CU        0.666009    0.554913    0.128069     0.006663
NI473   NI        0.664228    0.585010    0.162653     0.004307
NI474   NI        0.700748    0.555355    0.161938     0.004307
NI475   NI        0.698466    0.584492    0.130484     0.004307
NI476   NI        0.734420    0.554373    0.130918     0.004307
NI477   NI        0.733554    0.586340    0.162874     0.004307
NI478   NI        0.766018    0.552820    0.163724     0.004307
NI479   NI        0.215242    0.609378    0.163708     0.004307
NI480   NI        0.247963    0.612299    0.128904     0.004307
NI481   NI        0.246212    0.638498    0.159855     0.004307
NI482   NI        0.284043    0.614064    0.157536     0.004307
NI483   NI        0.280320    0.643117    0.126464     0.004307
NI484   NI        0.312328    0.613057    0.124743     0.004307
NI485   NI        0.329394    0.624301    0.166480     0.004307
CU486   CU        0.369388    0.611484    0.169197     0.006663
NI487   NI        0.349184    0.644259    0.125163     0.004307
NI488   NI        0.384809    0.613458    0.128209     0.004307
NI489   NI        0.387073    0.646788    0.158462     0.004307
NI490   NI        0.420586    0.611554    0.156410     0.004307
NI491   NI        0.421006    0.644363    0.128224     0.004307
NI492   NI        0.456128    0.615183    0.126408     0.004307
NI493   NI        0.457190    0.647552    0.158965     0.004307
CU494   CU        0.493526    0.615046    0.159796     0.006663
CU495   CU        0.490815    0.643576    0.128970     0.006663
NI496   NI        0.525637    0.615787    0.125150     0.004307
NI497   NI        0.528571    0.645991    0.159050     0.004307
NI498   NI        0.561199    0.614148    0.157501     0.004307
NI499   NI        0.562840    0.645518    0.125979     0.004307
NI500   NI        0.595345    0.614421    0.126963     0.004307
NI501   NI        0.594459    0.645310    0.160214     0.004307
CU502   CU        0.629713    0.614640    0.160042     0.006663
NI503   NI        0.627907    0.644756    0.129207     0.004307
CU504   CU        0.666627    0.616169    0.128860     0.006663
NI505   NI        0.662515    0.645390    0.163682     0.004307
NI506   NI        0.697404    0.614072    0.161292     0.004307
NI507   NI        0.279306    0.670766    0.161315     0.004307
CU508   CU        0.316365    0.670544    0.126315     0.006663
CU509   CU        0.318057    0.701209    0.159587     0.006663
CU510   CU        0.351618    0.676279    0.157099     0.006663
NI511   NI        0.347696    0.705783    0.122688     0.004307
NI512   NI        0.382195    0.674491    0.124351     0.004307
NI513   NI        0.381011    0.706446    0.153906     0.004307
NI514   NI        0.419151    0.675584    0.158050     0.004307
NI515   NI        0.417034    0.702847    0.126576     0.004307
NI516   NI        0.455682    0.676980    0.127325     0.004307
CU517   CU        0.449289    0.707782    0.159431     0.006663
NI518   NI        0.494792    0.674634    0.158677     0.004307
NI519   NI        0.490779    0.705585    0.130505     0.004307
CU520   CU        0.526908    0.676880    0.126200     0.006663
CU521   CU        0.530072    0.706292    0.158471     0.006663
NI522   NI        0.562062    0.676717    0.159640     0.004307
NI523   NI        0.558776    0.705603    0.124041     0.004307
NI524   NI        0.596033    0.677574    0.128952     0.004307
NI525   NI        0.594714    0.704973    0.162860     0.004307
NI526   NI        0.625893    0.675235    0.164205     0.004307
CU527   CU        0.346733    0.731681    0.157924     0.006663
NI528   NI        0.413815    0.734530    0.159684     0.004307
NI529   NI        0.491699    0.733269    0.164962     0.004307
NI530   NI        0.563588    0.733066    0.162424     0.004307
NI531   NI        0.312766    0.098687    0.230121     0.004307
NI532   NI        0.385041    0.097632    0.229703     0.004307
CU533   CU        0.419095    0.098115    0.194962     0.006663
CU534   CU        0.455004    0.097310    0.227164     0.006663
NI535   NI        0.490813    0.098044    0.194220     0.004307
NI536   NI        0.528045    0.095283    0.227662     0.004307
NI537   NI        0.598202    0.097473    0.230171     0.004307
NI538   NI        0.246301    0.156040    0.230033     0.004307
NI539   NI        0.278426    0.126161    0.230458     0.004307
NI540   NI        0.282492    0.156377    0.198013     0.004307
NI541   NI        0.315786    0.127817    0.198872     0.004307
NI542   NI        0.315976    0.156451    0.229835     0.004307
NI543   NI        0.350500    0.124658    0.229753     0.004307
CU544   CU        0.350612    0.153498    0.195475     0.006663
NI545   NI        0.385204    0.124427    0.195925     0.004307
CU546   CU        0.384462    0.152851    0.227893     0.006663
NI547   NI        0.421577    0.125556    0.226590     0.004307
NI548   NI        0.421457    0.153011    0.194898     0.004307
CU549   CU        0.456368    0.123365    0.193902     0.006663
NI550   NI        0.456557    0.153477    0.227282     0.004307
NI551   NI        0.491471    0.122827    0.229331     0.004307
NI552   NI        0.490174    0.153897    0.191794     0.004307
NI553   NI        0.523992    0.125473    0.196699     0.004307
NI554   NI        0.527866    0.152034    0.229744     0.004307
NI555   NI        0.562410    0.124917    0.229320     0.004307
NI556   NI        0.560185    0.153398    0.195492     0.004307
NI557   NI        0.597807    0.125728    0.195941     0.004307
NI558   NI        0.595977    0.156436    0.227138     0.004307
CU559   CU        0.630908    0.125789    0.231552     0.006663
NI560   NI        0.630350    0.155734    0.196137     0.004307
NI561   NI        0.665723    0.155543    0.230838     0.004307
NI562   NI        0.178695    0.216942    0.231642     0.004307
NI563   NI        0.216728    0.185625    0.231696     0.004307
NI564   NI        0.215294    0.218314    0.196241     0.004307
NI565   NI        0.250240    0.187281    0.197455     0.004307
CU566   CU        0.246438    0.214689    0.230489     0.006663
CU567   CU        0.282032    0.182711    0.230603     0.006663
NI568   NI        0.281774    0.215367    0.196258     0.004307
NI569   NI        0.314033    0.184529    0.196351     0.004307
CU570   CU        0.318741    0.214901    0.227036     0.006663
CU571   CU        0.351571    0.183365    0.227226     0.006663
NI572   NI        0.350992    0.212914    0.192370     0.004307
NI573   NI        0.385063    0.183301    0.193578     0.004307
NI574   NI        0.386183    0.213285    0.224485     0.004307
CU575   CU        0.422036    0.183469    0.225405     0.006663
NI576   NI        0.423828    0.213873    0.193785     0.004307
NI577   NI        0.458124    0.182634    0.192381     0.004307
NI578   NI        0.456640    0.210379    0.225550     0.004307
NI579   NI        0.493411    0.181481    0.224848     0.004307
CU580   CU        0.492626    0.213221    0.193806     0.006663
NI581   NI        0.527612    0.181300    0.193035     0.004307
NI582   NI        0.527318    0.212188    0.226851     0.004307
CU583   CU        0.561602    0.183688    0.225914     0.006663
CU584   CU        0.562879    0.210950    0.192225     0.006663
NI585   NI        0.596134    0.182615    0.191988     0.004307
NI586   NI        0.596421    0.212954    0.224257     0.004307
NI587   NI        0.631110    0.184689    0.224023     0.004307
NI588   NI        0.634289    0.215686    0.192311     0.004307
CU589   CU        0.664761    0.186455    0.193985     0.006663
NI590   NI        0.666986    0.213785    0.228597     0.004307
NI591   NI        0.697293    0.184237    0.228659     0.004307
NI592   NI        0.698596    0.215049    0.193473     0.004307
NI593   NI        0.735323    0.218099    0.234714     0.004307
NI594   NI        0.110260    0.275270    0.230764     0.004307
NI595   NI        0.148131    0.245731    0.232473     0.004307
NI596   NI        0.145514    0.276372    0.197041     0.004307
NI597   NI        0.179441    0.245518    0.198586     0.004307
NI598   NI        0.177208    0.274157    0.230809     0.004307
NI599   NI        0.211555    0.244835    0.230741     0.004307
NI600   NI        0.213191    0.273739    0.194809     0.004307
NI601   NI        0.248122    0.245316    0.198246     0.004307
NI602   NI        0.244599    0.276704    0.230074     0.004307
NI603   NI        0.279412    0.244248    0.229414     0.004307
NI604   NI        0.280381    0.275740    0.194321     0.004307
NI605   NI        0.313300    0.244519    0.193505     0.004307
NI606   NI        0.316742    0.270260    0.226509     0.004307
NI607   NI        0.353882    0.241313    0.224533     0.004307
CU608   CU        0.348849    0.273823    0.192636     0.006663
NI609   NI        0.384361    0.242390    0.189015     0.004307
CU610   CU        0.385679    0.269854    0.223516     0.006663
NI611   NI        0.418657    0.244031    0.223442     0.004307
NI612   NI        0.426425    0.276366    0.195860     0.004307
NI613   NI        0.456626    0.244645    0.193209     0.004307
CU614   CU        0.459854    0.278208    0.230636     0.006663
NI615   NI        0.489723    0.245578    0.228616     0.004307
CU616   CU        0.492852    0.274813    0.192764     0.006663
NI617   NI        0.525936    0.243664    0.194567     0.004307
NI618   NI        0.527045    0.274112    0.226295     0.004307
NI619   NI        0.559298    0.240071    0.224882     0.004307
NI620   NI        0.556600    0.275473    0.189886     0.004307
NI621   NI        0.595477    0.239901    0.190457     0.004307
NI622   NI        0.582670    0.287660    0.249860     0.004307
NI623   NI        0.633287    0.239416    0.229945     0.004307
NI624   NI        0.621373    0.285627    0.217699     0.004307
NI625   NI        0.665888    0.243274    0.192142     0.004307
NI626   NI        0.667462    0.272671    0.226157     0.004307
NI627   NI        0.702133    0.243486    0.226420     0.004307
NI628   NI        0.703422    0.272405    0.193971     0.004307
NI629   NI        0.737293    0.246624    0.198144     0.004307
NI630   NI        0.734683    0.274973    0.227581     0.004307
NI631   NI        0.768655    0.248666    0.234201     0.004307
NI632   NI        0.767570    0.278684    0.200070     0.004307
NI633   NI        0.799835    0.279561    0.232502     0.004307
NI634   NI        0.080112    0.306658    0.226928     0.004307
NI635   NI        0.111876    0.306512    0.196934     0.004307
CU636   CU        0.111165    0.336204    0.226298     0.006663
NI637   NI        0.140820    0.306581    0.229869     0.004307
NI638   NI        0.142335    0.335114    0.192352     0.004307
CU639   CU        0.175755    0.305919    0.195320     0.006663
CU640   CU        0.174276    0.334120    0.228595     0.006663
NI641   NI        0.207773    0.302568    0.227560     0.004307
NI642   NI        0.208288    0.333331    0.194564     0.004307
NI643   NI        0.245734    0.302787    0.191887     0.004307
NI644   NI        0.253380    0.342388    0.244214     0.004307
NI645   NI        0.278063    0.304533    0.227780     0.004307
NI646   NI        0.283640    0.341842    0.209697     0.004307
NI647   NI        0.315207    0.301934    0.194504     0.004307
NI648   NI        0.321816    0.340708    0.239511     0.004307
NI649   NI        0.355966    0.312383    0.239669     0.004307
NI650   NI        0.353831    0.342785    0.205603     0.004307
NI651   NI        0.384069    0.305788    0.191964     0.004307
NI652   NI        0.385479    0.340679    0.240147     0.004307
NI653   NI        0.433151    0.309408    0.229069     0.004307
NI654   NI        0.429010    0.335061    0.194210     0.004307
NI655   NI        0.461077    0.307174    0.194473     0.004307
NI656   NI        0.466151    0.336731    0.231412     0.004307
NI657   NI        0.494584    0.304464    0.228284     0.004307
NI658   NI        0.492022    0.336213    0.193282     0.004307
NI659   NI        0.522607    0.305439    0.190801     0.004307
NI660   NI        0.527165    0.339843    0.236751     0.004307
NI661   NI        0.555189    0.306914    0.222312     0.004307
NI662   NI        0.562924    0.336053    0.186559     0.004307
NI663   NI        0.594391    0.308161    0.189303     0.004307
NI664   NI        0.588565    0.347724    0.246614     0.004307
CU665   CU        0.613659    0.316655    0.246876     0.006663
NI666   NI        0.618009    0.343327    0.211232     0.004307
NI667   NI        0.671177    0.307767    0.187509     0.004307
CU668   CU        0.644509    0.345781    0.246321     0.006663
NI669   NI        0.671377    0.313976    0.243748     0.004307
CU670   CU        0.701871    0.335992    0.189955     0.006663
NI671   NI        0.733527    0.308609    0.189914     0.004307
NI672   NI        0.707880    0.338870    0.240906     0.004307
NI673   NI        0.765448    0.307903    0.229480     0.004307
NI674   NI        0.767791    0.339769    0.194496     0.004307
CU675   CU        0.798864    0.309977    0.198836     0.006663
NI676   NI        0.799704    0.340255    0.227692     0.004307
NI677   NI        0.831493    0.308883    0.229076     0.004307
NI678   NI        0.078505    0.364159    0.226866     0.004307
NI679   NI        0.078015    0.399753    0.194492     0.004307
NI680   NI        0.108380    0.368150    0.194141     0.004307
CU681   CU        0.109448    0.398330    0.229120     0.006663
NI682   NI        0.142104    0.365313    0.226411     0.004307
CU683   CU        0.140564    0.398489    0.194433     0.006663
NI684   NI        0.176739    0.363077    0.194058     0.004307
CU685   CU        0.187559    0.399838    0.242852     0.006663
NI686   NI        0.218023    0.370278    0.241805     0.004307
NI687   NI        0.218745    0.400766    0.210619     0.004307
NI688   NI        0.252960    0.370574    0.209591     0.004307
NI689   NI        0.252708    0.398805    0.241032     0.004307
CU690   CU        0.287816    0.371131    0.240120     0.006663
CU691   CU        0.285321    0.400156    0.208088     0.006663
NI692   NI        0.318473    0.371458    0.205764     0.004307
CU693   CU        0.320147    0.399800    0.240398     0.006663
CU694   CU        0.353210    0.369616    0.240562     0.006663
NI695   NI        0.355008    0.399127    0.208004     0.004307
CU696   CU        0.386075    0.369004    0.207208     0.006663
CU697   CU        0.385308    0.398723    0.240245     0.006663
NI698   NI        0.417255    0.370191    0.240918     0.004307
CU699   CU        0.417473    0.397957    0.208910     0.006663
NI700   NI        0.461345    0.364251    0.195639     0.004307
CU701   CU        0.454085    0.399976    0.240811     0.006663
NI702   NI        0.494247    0.366432    0.227492     0.004307
NI703   NI        0.495153    0.394864    0.194264     0.004307
NI704   NI        0.522880    0.364709    0.189797     0.004307
CU705   CU        0.521721    0.399124    0.237823     0.006663
CU706   CU        0.555597    0.374531    0.240669     0.006663
NI707   NI        0.557390    0.402833    0.207156     0.004307
NI708   NI        0.594369    0.365567    0.186331     0.004307
CU709   CU        0.588146    0.403482    0.241057     0.006663
NI710   NI        0.619881    0.376592    0.245943     0.004307
NI711   NI        0.620964    0.401275    0.207244     0.004307
NI712   NI        0.649904    0.371420    0.212420     0.004307
CU713   CU        0.653143    0.402477    0.241657     0.006663
NI714   NI        0.682545    0.371145    0.242699     0.004307
NI715   NI        0.703182    0.398814    0.191422     0.004307
NI716   NI        0.737842    0.370001    0.189229     0.004307
NI717   NI        0.724882    0.375122    0.229845     0.004307
NI718   NI        0.768639    0.369021    0.226743     0.004307
NI719   NI        0.767688    0.400337    0.189927     0.004307
NI720   NI        0.800959    0.371656    0.195520     0.004307
CU721   CU        0.800477    0.399280    0.229835     0.006663
NI722   NI        0.832895    0.369835    0.229296     0.004307
NI723   NI        0.830438    0.401077    0.196685     0.004307
NI724   NI        0.077393    0.430272    0.230821     0.004307
NI725   NI        0.077768    0.459476    0.196782     0.004307
NI726   NI        0.108948    0.431307    0.196549     0.004307
NI727   NI        0.107830    0.462930    0.229930     0.004307
NI728   NI        0.139697    0.433073    0.228782     0.004307
NI729   NI        0.143138    0.463173    0.192004     0.004307
NI730   NI        0.175508    0.433956    0.194273     0.004307
NI731   NI        0.172536    0.463554    0.226729     0.004307
NI732   NI        0.219271    0.428209    0.242799     0.004307
CU733   CU        0.206533    0.461853    0.193299     0.006663
NI734   NI        0.252661    0.429401    0.209453     0.004307
NI735   NI        0.252376    0.457356    0.240542     0.004307
CU736   CU        0.286966    0.428963    0.239879     0.006663
NI737   NI        0.284991    0.456475    0.207042     0.004307
NI738   NI        0.319415    0.426530    0.205313     0.004307
CU739   CU        0.320274    0.459308    0.238871     0.006663
CU740   CU        0.352756    0.431268    0.238582     0.006663
NI741   NI        0.351644    0.458007    0.205436     0.004307
NI742   NI        0.386278    0.429902    0.207269     0.004307
CU743   CU        0.387121    0.458446    0.240288     0.006663
CU744   CU        0.420246    0.426584    0.239864     0.006663
NI745   NI        0.420478    0.456954    0.204497     0.004307
NI746   NI        0.459263    0.434565    0.189264     0.004307
CU747   CU        0.452513    0.456566    0.235711     0.006663
CU748   CU        0.490557    0.427346    0.242803     0.006663
NI749   NI        0.492890    0.459401    0.189225     0.004307
NI750   NI        0.521681    0.426903    0.206534     0.004307
NI751   NI        0.522252    0.455654    0.240715     0.004307
CU752   CU        0.556693    0.431044    0.238541     0.006663
NI753   NI        0.552346    0.459806    0.207639     0.004307
NI754   NI        0.590184    0.430423    0.208271     0.004307
NI755   NI        0.590049    0.459114    0.241273     0.004307
CU756   CU        0.624171    0.430362    0.240964     0.006663
NI757   NI        0.620299    0.459022    0.208677     0.004307
NI758   NI        0.651906    0.431147    0.207850     0.004307
NI759   NI        0.654665    0.461335    0.241083     0.004307
NI760   NI        0.684298    0.430725    0.239289     0.004307
CU761   CU        0.702991    0.465298    0.191140     0.006663
NI762   NI        0.738038    0.431796    0.190531     0.004307
CU763   CU        0.737330    0.465979    0.227902     0.006663
CU764   CU        0.768319    0.431970    0.226707     0.006663
CU765   CU        0.766648    0.462324    0.194735     0.006663
NI766   NI        0.799209    0.430292    0.194479     0.004307
NI767   NI        0.801462    0.459919    0.229039     0.004307
NI768   NI        0.832837    0.432002    0.229378     0.004307
NI769   NI        0.831596    0.462000    0.195399     0.004307
NI770   NI        0.076239    0.493017    0.230102     0.004307
NI771   NI        0.109598    0.491552    0.195793     0.004307
NI772   NI        0.109793    0.523063    0.229746     0.004307
NI773   NI        0.141497    0.492727    0.227170     0.004307
NI774   NI        0.142622    0.522212    0.192351     0.004307
NI775   NI        0.174969    0.492585    0.191177     0.004307
NI776   NI        0.176063    0.523017    0.225986     0.004307
NI777   NI        0.207001    0.493218    0.225032     0.004307
NI778   NI        0.208323    0.523481    0.191850     0.004307
NI779   NI        0.254408    0.490798    0.211469     0.004307
NI780   NI        0.257230    0.521739    0.241993     0.004307
NI781   NI        0.286994    0.491599    0.241896     0.004307
NI782   NI        0.287772    0.520212    0.207476     0.004307
NI783   NI        0.318452    0.490078    0.207657     0.004307
NI784   NI        0.319614    0.521030    0.240102     0.004307
CU785   CU        0.354474    0.488609    0.239624     0.006663
CU786   CU        0.352541    0.520453    0.206075     0.006663
CU787   CU        0.384573    0.487516    0.206455     0.006663
CU788   CU        0.387408    0.516960    0.239146     0.006663
CU789   CU        0.418881    0.485839    0.238598     0.006663
NI790   NI        0.424229    0.521089    0.189162     0.004307
NI791   NI        0.457253    0.490563    0.188108     0.004307
NI792   NI        0.455597    0.517035    0.241433     0.004307
NI793   NI        0.495279    0.498174    0.233049     0.004307
NI794   NI        0.492508    0.522755    0.191523     0.004307
NI795   NI        0.525938    0.494224    0.191368     0.004307
CU796   CU        0.529584    0.525037    0.225299     0.006663
NI797   NI        0.563392    0.494931    0.230523     0.004307
NI798   NI        0.563652    0.526750    0.193352     0.004307
NI799   NI        0.597401    0.493501    0.195329     0.004307
NI800   NI        0.596924    0.525565    0.225655     0.004307
NI801   NI        0.622549    0.489500    0.240311     0.004307
CU802   CU        0.633965    0.524284    0.193929     0.006663
CU803   CU        0.670883    0.496692    0.192059     0.006663
CU804   CU        0.667257    0.526969    0.225683     0.006663
NI805   NI        0.703344    0.496006    0.224552     0.004307
NI806   NI        0.702629    0.525396    0.191960     0.004307
NI807   NI        0.735521    0.492152    0.194205     0.004307
NI808   NI        0.735836    0.522892    0.226277     0.004307
NI809   NI        0.768739    0.493592    0.227204     0.004307
CU810   CU        0.766665    0.521857    0.193357     0.006663
CU811   CU        0.802121    0.491540    0.194885     0.006663
NI812   NI        0.805714    0.520492    0.227760     0.004307
NI813   NI        0.834403    0.487712    0.231437     0.004307
NI814   NI        0.082018    0.553388    0.231706     0.004307
NI815   NI        0.111906    0.551539    0.196284     0.004307
CU816   CU        0.111996    0.579856    0.230542     0.006663
NI817   NI        0.145408    0.553125    0.229497     0.004307
NI818   NI        0.144261    0.581432    0.197165     0.004307
NI819   NI        0.176495    0.549945    0.193469     0.004307
NI820   NI        0.177342    0.583480    0.232001     0.004307
CU821   CU        0.206268    0.550901    0.228526     0.006663
CU822   CU        0.208787    0.580657    0.194794     0.006663
NI823   NI        0.241354    0.549961    0.191817     0.004307
NI824   NI        0.256613    0.583061    0.246847     0.004307
NI825   NI        0.286230    0.552720    0.238140     0.004307
CU826   CU        0.286651    0.582201    0.207996     0.006663
NI827   NI        0.319139    0.550458    0.207450     0.004307
NI828   NI        0.318681    0.580699    0.240909     0.004307
NI829   NI        0.352724    0.549023    0.237993     0.004307
NI830   NI        0.356185    0.579962    0.207784     0.004307
NI831   NI        0.387802    0.550257    0.208526     0.004307
NI832   NI        0.387922    0.579248    0.241197     0.004307
CU833   CU        0.421799    0.549632    0.241627     0.006663
NI834   NI        0.421403    0.579350    0.207204     0.004307
NI835   NI        0.458649    0.553645    0.189434     0.004307
CU836   CU        0.454778    0.577831    0.237514     0.006663
CU837   CU        0.496015    0.553668    0.227237     0.006663
CU838   CU        0.494247    0.585619    0.189942     0.006663
CU839   CU        0.526815    0.552829    0.193287     0.006663
NI840   NI        0.530011    0.582398    0.227056     0.004307
NI841   NI        0.562979    0.552455    0.228603     0.004307
NI842   NI        0.561830    0.584466    0.190457     0.004307
CU843   CU        0.598065    0.554085    0.191181     0.006663
NI844   NI        0.598103    0.584142    0.224999     0.004307
CU845   CU        0.628635    0.553710    0.222953     0.006663
NI846   NI        0.629613    0.586204    0.193882     0.004307
CU847   CU        0.667211    0.554546    0.194048     0.006663
CU848   CU        0.667777    0.586790    0.227385     0.006663
NI849   NI        0.701401    0.554510    0.227368     0.004307
NI850   NI        0.699205    0.586199    0.193645     0.004307
CU851   CU        0.734620    0.552786    0.196041     0.006663
NI852   NI        0.734520    0.583035    0.229345     0.004307
CU853   CU        0.767203    0.553788    0.228640     0.006663
NI854   NI        0.765327    0.583473    0.197783     0.004307
NI855   NI        0.800236    0.552142    0.196073     0.004307
NI856   NI        0.797149    0.582486    0.231972     0.004307
NI857   NI        0.832955    0.555352    0.229664     0.004307
NI858   NI        0.143839    0.607654    0.229833     0.004307
NI859   NI        0.178101    0.608957    0.193519     0.004307
NI860   NI        0.174439    0.638715    0.224904     0.004307
NI861   NI        0.208667    0.612548    0.226425     0.004307
NI862   NI        0.203586    0.642113    0.190505     0.004307
NI863   NI        0.254710    0.616214    0.215644     0.004307
CU864   CU        0.249903    0.652381    0.232570     0.006663
NI865   NI        0.289100    0.611648    0.246165     0.004307
NI866   NI        0.279980    0.645287    0.197015     0.004307
CU867   CU        0.308823    0.615460    0.204716     0.006663
CU868   CU        0.314037    0.649591    0.228966     0.006663
NI869   NI        0.353268    0.607146    0.242208     0.004307
NI870   NI        0.349133    0.635301    0.205641     0.004307
NI871   NI        0.386641    0.611420    0.209752     0.004307
NI872   NI        0.387826    0.641819    0.238234     0.004307
NI873   NI        0.422297    0.609539    0.239219     0.004307
NI874   NI        0.423583    0.638077    0.207918     0.004307
CU875   CU        0.454954    0.608310    0.208709     0.006663
NI876   NI        0.454319    0.638777    0.240871     0.004307
CU877   CU        0.486694    0.609692    0.241879     0.006663
NI878   NI        0.494922    0.647347    0.191982     0.004307
NI879   NI        0.530606    0.615973    0.191144     0.004307
NI880   NI        0.530485    0.648429    0.225508     0.004307
NI881   NI        0.563400    0.614260    0.224048     0.004307
NI882   NI        0.562029    0.647257    0.192937     0.004307
CU883   CU        0.595332    0.615075    0.192042     0.006663
NI884   NI        0.595434    0.644684    0.226440     0.004307
CU885   CU        0.632671    0.616145    0.226415     0.006663
CU886   CU        0.628828    0.645387    0.194354     0.006663
NI887   NI        0.663453    0.616348    0.195920     0.004307
NI888   NI        0.665096    0.647012    0.229714     0.004307
NI889   NI        0.699192    0.616883    0.228391     0.004307
NI890   NI        0.695995    0.645073    0.195466     0.004307
NI891   NI        0.734800    0.613633    0.196117     0.004307
NI892   NI        0.731564    0.645382    0.233161     0.004307
NI893   NI        0.764589    0.613673    0.231467     0.004307
NI894   NI        0.214217    0.679508    0.235872     0.004307
NI895   NI        0.251460    0.680853    0.197612     0.004307
NI896   NI        0.247256    0.706829    0.234080     0.004307
NI897   NI        0.282284    0.680546    0.231850     0.004307
NI898   NI        0.280406    0.706678    0.184301     0.004307
CU899   CU        0.311636    0.676601    0.193683     0.006663
NI900   NI        0.324946    0.701528    0.227352     0.004307
NI901   NI        0.352772    0.670999    0.241794     0.004307
CU902   CU        0.351700    0.704838    0.191650     0.006663
CU903   CU        0.384561    0.678443    0.188411     0.006663
NI904   NI        0.384220    0.707533    0.226799     0.004307
NI905   NI        0.422947    0.670757    0.239010     0.004307
NI906   NI        0.416468    0.705850    0.191216     0.004307
NI907   NI        0.456192    0.664661    0.205837     0.004307
NI908   NI        0.457529    0.702504    0.232768     0.004307
NI909   NI        0.485272    0.669946    0.241903     0.004307
NI910   NI        0.489605    0.689222    0.201959     0.004307
NI911   NI        0.530055    0.675754    0.190629     0.004307
NI912   NI        0.529065    0.706250    0.223739     0.004307
NI913   NI        0.562134    0.678481    0.227713     0.004307
NI914   NI        0.560345    0.705467    0.194940     0.004307
NI915   NI        0.594280    0.676712    0.196394     0.004307
NI916   NI        0.595229    0.707092    0.230698     0.004307
NI917   NI        0.628681    0.676915    0.231549     0.004307
NI918   NI        0.626344    0.705050    0.198996     0.004307
NI919   NI        0.662350    0.673616    0.197780     0.004307
NI920   NI        0.662181    0.705216    0.231992     0.004307
NI921   NI        0.695884    0.675284    0.231157     0.004307
NI922   NI        0.287466    0.725633    0.222566     0.004307
NI923   NI        0.318356    0.730927    0.191980     0.004307
NI924   NI        0.310656    0.758395    0.229378     0.004307
NI925   NI        0.348424    0.733789    0.228450     0.004307
NI926   NI        0.383796    0.735227    0.193451     0.004307
NI927   NI        0.385254    0.762170    0.228652     0.004307
NI928   NI        0.417755    0.736338    0.230580     0.004307
NI929   NI        0.417604    0.763051    0.195009     0.004307
NI930   NI        0.450367    0.736041    0.193943     0.004307
NI931   NI        0.451768    0.766946    0.228178     0.004307
NI932   NI        0.492176    0.727742    0.213064     0.004307
NI933   NI        0.489336    0.763482    0.194965     0.004307
NI934   NI        0.530674    0.736909    0.191604     0.004307
NI935   NI        0.523817    0.762208    0.226093     0.004307
NI936   NI        0.560609    0.734783    0.229128     0.004307
NI937   NI        0.593709    0.734103    0.197294     0.004307
NI938   NI        0.595887    0.763891    0.230940     0.004307
NI939   NI        0.629260    0.735017    0.230986     0.004307
NI940   NI        0.247371    0.095168    0.299115     0.004307
NI941   NI        0.280801    0.096530    0.266559     0.004307
NI942   NI        0.316763    0.096517    0.298646     0.004307
NI943   NI        0.350759    0.067755    0.299512     0.004307
CU944   CU        0.349300    0.097341    0.260257     0.006663
NI945   NI        0.386973    0.069058    0.265423     0.004307
NI946   NI        0.384912    0.095247    0.295836     0.004307
NI947   NI        0.423441    0.069136    0.297892     0.004307
CU948   CU        0.420236    0.096749    0.264146     0.006663
NI949   NI        0.455000    0.068393    0.262564     0.004307
NI950   NI        0.455987    0.096062    0.296627     0.004307
CU951   CU        0.490155    0.068811    0.299217     0.006663
CU952   CU        0.491563    0.094783    0.265422     0.006663
NI953   NI        0.525066    0.068129    0.263037     0.004307
CU954   CU        0.528160    0.095247    0.295429     0.006663
NI955   NI        0.560525    0.067007    0.296727     0.004307
NI956   NI        0.563390    0.097140    0.262978     0.004307
CU957   CU        0.597449    0.096251    0.293945     0.006663
CU958   CU        0.631827    0.096601    0.263609     0.006663
NI959   NI        0.666457    0.096067    0.298065     0.004307
NI960   NI        0.177620    0.157185    0.302366     0.004307
NI961   NI        0.211515    0.125514    0.298484     0.004307
NI962   NI        0.213456    0.155971    0.264556     0.004307
NI963   NI        0.243257    0.126768    0.262955     0.004307
CU964   CU        0.243746    0.152955    0.298908     0.006663
CU965   CU        0.280289    0.126009    0.297933     0.006663
NI966   NI        0.280965    0.153829    0.263605     0.004307
NI967   NI        0.316226    0.126046    0.262893     0.004307
CU968   CU        0.315771    0.153069    0.295863     0.006663
NI969   NI        0.351709    0.124231    0.294497     0.004307
CU970   CU        0.349155    0.153794    0.262998     0.006663
CU971   CU        0.384306    0.125220    0.260829     0.006663
NI972   NI        0.386805    0.150959    0.295442     0.004307
NI973   NI        0.420428    0.124515    0.295494     0.004307
NI974   NI        0.415377    0.152700    0.260556     0.004307
NI975   NI        0.454791    0.125250    0.262279     0.004307
NI976   NI        0.462534    0.154728    0.298429     0.004307
NI977   NI        0.491610    0.123513    0.296480     0.004307
NI978   NI        0.493246    0.150954    0.260835     0.004307
CU979   CU        0.527277    0.122500    0.260171     0.006663
CU980   CU        0.526141    0.151740    0.297133     0.006663
NI981   NI        0.561315    0.124884    0.295022     0.004307
NI982   NI        0.562657    0.152317    0.260737     0.004307
NI983   NI        0.596639    0.125930    0.262463     0.004307
NI984   NI        0.597279    0.152515    0.295120     0.004307
NI985   NI        0.632636    0.125932    0.296098     0.004307
NI986   NI        0.629702    0.154560    0.264089     0.004307
NI987   NI        0.665966    0.127034    0.263105     0.004307
NI988   NI        0.664203    0.155612    0.298551     0.004307
NI989   NI        0.699200    0.124553    0.295683     0.004307
NI990   NI        0.695819    0.156646    0.266336     0.004307
NI991   NI        0.732403    0.156999    0.297799     0.004307
NI992   NI        0.111058    0.214385    0.297695     0.004307
NI993   NI        0.144323    0.187486    0.301358     0.004307
NI994   NI        0.145063    0.215900    0.266258     0.004307
NI995   NI        0.183825    0.185924    0.265506     0.004307
NI996   NI        0.179193    0.214676    0.301010     0.004307
NI997   NI        0.211886    0.182683    0.298666     0.004307
NI998   NI        0.209544    0.215879    0.262939     0.004307
NI999   NI        0.246409    0.184284    0.264752     0.004307
NI1000   NI        0.252076    0.226314    0.301826     0.004307
NI1001   NI        0.283517    0.181003    0.297220     0.004307
NI1002   NI        0.278925    0.213966    0.264648     0.004307
NI1003   NI        0.314585    0.183994    0.261410     0.004307
NI1004   NI        0.314635    0.213139    0.293790     0.004307
CU1005   CU        0.347922    0.179718    0.293745     0.006663
NI1006   NI        0.349441    0.210509    0.260421     0.004307
NI1007   NI        0.382607    0.182495    0.262205     0.004307
NI1008   NI        0.382236    0.213889    0.296441     0.004307
NI1009   NI        0.422308    0.197608    0.305804     0.004307
NI1010   NI        0.422283    0.213185    0.258791     0.004307
NI1011   NI        0.458523    0.183194    0.257821     0.004307
NI1012   NI        0.462194    0.215498    0.294446     0.004307
NI1013   NI        0.495208    0.183446    0.292184     0.004307
NI1014   NI        0.493767    0.211906    0.260253     0.004307
CU1015   CU        0.527822    0.181651    0.261693     0.006663
NI1016   NI        0.526058    0.215061    0.295702     0.004307
NI1017   NI        0.560301    0.179573    0.293552     0.004307
CU1018   CU        0.560381    0.212464    0.262376     0.006663
NI1019   NI        0.597529    0.183150    0.260092     0.004307
NI1020   NI        0.595706    0.211057    0.293768     0.004307
CU1021   CU        0.632138    0.183930    0.295230     0.006663
CU1022   CU        0.632264    0.211659    0.262270     0.006663
NI1023   NI        0.664308    0.184813    0.260770     0.004307
CU1024   CU        0.669239    0.211926    0.294551     0.006663
NI1025   NI        0.700777    0.184789    0.297802     0.004307
NI1026   NI        0.700088    0.212938    0.260202     0.004307
NI1027   NI        0.737159    0.188116    0.266511     0.004307
NI1028   NI        0.736358    0.213405    0.299942     0.004307
NI1029   NI        0.767912    0.183356    0.298440     0.004307
NI1030   NI        0.768587    0.216582    0.267637     0.004307
NI1031   NI        0.800073    0.217609    0.298841     0.004307
NI1032   NI        0.079612    0.242885    0.298892     0.004307
NI1033   NI        0.080017    0.273874    0.263102     0.004307
CU1034   CU        0.112003    0.244046    0.265049     0.006663
NI1035   NI        0.110504    0.274303    0.298483     0.004307
CU1036   CU        0.141170    0.244441    0.300059     0.006663
NI1037   NI        0.143997    0.274931    0.264485     0.004307
NI1038   NI        0.179062    0.244961    0.265754     0.004307
NI1039   NI        0.174141    0.272672    0.298143     0.004307
NI1040   NI        0.211523    0.243037    0.296631     0.004307
NI1041   NI        0.209257    0.275381    0.262484     0.004307
NI1042   NI        0.245746    0.243183    0.261479     0.004307
NI1043   NI        0.253035    0.282630    0.306895     0.004307
NI1044   NI        0.286534    0.255182    0.305730     0.004307
NI1045   NI        0.283424    0.273780    0.258797     0.004307
NI1046   NI        0.313709    0.241082    0.258970     0.004307
CU1047   CU        0.321483    0.283865    0.305860     0.006663
CU1048   CU        0.355946    0.255069    0.307573     0.006663
CU1049   CU        0.354306    0.283177    0.273449     0.006663
NI1050   NI        0.389355    0.240307    0.257763     0.004307
NI1051   NI        0.388820    0.283012    0.305663     0.004307
NI1052   NI        0.422353    0.238687    0.291962     0.004307
NI1053   NI        0.428042    0.277865    0.284196     0.004307
CU1054   CU        0.461339    0.251480    0.267534     0.006663
NI1055   NI        0.468653    0.276741    0.302334     0.004307
NI1056   NI        0.497483    0.244808    0.293125     0.004307
CU1057   CU        0.498520    0.274819    0.263033     0.006663
NI1058   NI        0.527725    0.243221    0.257388     0.004307
CU1059   CU        0.516561    0.283257    0.305875     0.006663
NI1060   NI        0.562462    0.240283    0.295538     0.004307
NI1061   NI        0.554486    0.280132    0.284177     0.004307
NI1062   NI        0.596346    0.238193    0.260151     0.004307
NI1063   NI        0.586806    0.286884    0.310954     0.004307
NI1064   NI        0.628845    0.251787    0.326540     0.004307
CU1065   CU        0.615492    0.287662    0.278458     0.006663
CU1066   CU        0.668450    0.240551    0.260708     0.006663
NI1067   NI        0.645113    0.286836    0.309875     0.004307
CU1068   CU        0.703141    0.240147    0.295567     0.006663
NI1069   NI        0.699703    0.269224    0.260398     0.004307
NI1070   NI        0.736732    0.247165    0.266288     0.004307
NI1071   NI        0.731873    0.274399    0.296626     0.004307
NI1072   NI        0.766551    0.248714    0.299326     0.004307
NI1073   NI        0.765970    0.279338    0.265743     0.004307
NI1074   NI        0.800324    0.247209    0.265381     0.004307
NI1075   NI        0.798619    0.277777    0.298637     0.004307
NI1076   NI        0.830741    0.248867    0.299620     0.004307
NI1077   NI        0.830121    0.279249    0.265592     0.004307
NI1078   NI        0.047018    0.333714    0.295402     0.004307
NI1079   NI        0.078198    0.303987    0.298879     0.004307
NI1080   NI        0.077872    0.337684    0.261004     0.004307
NI1081   NI        0.107784    0.303397    0.265029     0.004307
NI1082   NI        0.108797    0.335069    0.296537     0.004307
NI1083   NI        0.140345    0.304842    0.296171     0.004307
NI1084   NI        0.138932    0.334376    0.262934     0.004307
CU1085   CU        0.174279    0.304071    0.261508     0.006663
NI1086   NI        0.186154    0.341544    0.306866     0.004307
NI1087   NI        0.222191    0.312812    0.305416     0.004307
NI1088   NI        0.219132    0.342940    0.275163     0.004307
NI1089   NI        0.246860    0.304200    0.263997     0.004307
NI1090   NI        0.257333    0.341076    0.305438     0.004307
NI1091   NI        0.291005    0.312233    0.306601     0.004307
CU1092   CU        0.289342    0.341920    0.273421     0.006663
CU1093   CU        0.323541    0.312403    0.272743     0.006663
CU1094   CU        0.321086    0.340173    0.305120     0.006663
CU1095   CU        0.356257    0.311678    0.305376     0.006663
CU1096   CU        0.353245    0.341296    0.272283     0.006663
CU1097   CU        0.387363    0.311363    0.272088     0.006663
CU1098   CU        0.387597    0.340737    0.305112     0.006663
CU1099   CU        0.422137    0.312347    0.303270     0.006663
CU1100   CU        0.419398    0.341142    0.273802     0.006663
NI1101   NI        0.464328    0.305515    0.263026     0.004307
CU1102   CU        0.456324    0.340433    0.303969     0.006663
CU1103   CU        0.490186    0.313329    0.304710     0.006663
CU1104   CU        0.492314    0.341866    0.271513     0.006663
NI1105   NI        0.526882    0.304767    0.261777     0.004307
CU1106   CU        0.522682    0.342791    0.306524     0.006663
CU1107   CU        0.550725    0.312419    0.306911     0.006663
CU1108   CU        0.554604    0.343403    0.274598     0.006663
NI1109   NI        0.584711    0.316187    0.280147     0.004307
NI1110   NI        0.586062    0.345104    0.308595     0.004307
CU1111   CU        0.617143    0.317963    0.309996     0.006663
NI1112   NI        0.618044    0.347572    0.279764     0.004307
NI1113   NI        0.646133    0.315421    0.278360     0.004307
CU1114   CU        0.653762    0.344387    0.309091     0.006663
NI1115   NI        0.681583    0.312511    0.307362     0.004307
NI1116   NI        0.681738    0.341625    0.274902     0.004307
NI1117   NI        0.711296    0.305623    0.272286     0.004307
NI1118   NI        0.716314    0.341233    0.303404     0.004307
NI1119   NI        0.770222    0.310193    0.298601     0.004307
NI1120   NI        0.770659    0.336723    0.263980     0.004307
NI1121   NI        0.800500    0.308453    0.262493     0.004307
CU1122   CU        0.802174    0.338953    0.297698     0.006663
NI1123   NI        0.833059    0.307547    0.295517     0.004307
NI1124   NI        0.833343    0.339821    0.262254     0.004307
NI1125   NI        0.865131    0.336159    0.298891     0.004307
NI1126   NI        0.047447    0.368205    0.261887     0.004307
CU1127   CU        0.042789    0.397561    0.298151     0.006663
CU1128   CU        0.074747    0.365529    0.298341     0.006663
NI1129   NI        0.077135    0.399250    0.263907     0.004307
NI1130   NI        0.109865    0.366475    0.261225     0.004307
NI1131   NI        0.108562    0.400668    0.298016     0.004307
NI1132   NI        0.150405    0.370072    0.305930     0.004307
CU1133   CU        0.150894    0.400639    0.275183     0.006663
NI1134   NI        0.184519    0.372380    0.274071     0.004307
NI1135   NI        0.185275    0.400696    0.307780     0.004307
NI1136   NI        0.220940    0.369754    0.308153     0.004307
CU1137   CU        0.221122    0.399581    0.274329     0.006663
NI1138   NI        0.253464    0.371393    0.274002     0.004307
CU1139   CU        0.253722    0.400284    0.308752     0.006663
CU1140   CU        0.288136    0.371164    0.306228     0.006663
CU1141   CU        0.288784    0.400639    0.275077     0.006663
NI1142   NI        0.321522    0.369921    0.272815     0.004307
CU1143   CU        0.320922    0.401665    0.308419     0.006663
CU1144   CU        0.355912    0.369893    0.305488     0.006663
CU1145   CU        0.354208    0.400112    0.272818     0.006663
CU1146   CU        0.387573    0.370508    0.272699     0.006663
NI1147   NI        0.388092    0.400202    0.305386     0.004307
CU1148   CU        0.422944    0.370743    0.303936     0.006663
CU1149   CU        0.421199    0.399669    0.273383     0.006663
CU1150   CU        0.454608    0.370810    0.273617     0.006663
CU1151   CU        0.455436    0.398770    0.306212     0.006663
NI1152   NI        0.487770    0.369935    0.306547     0.004307
CU1153   CU        0.487353    0.399641    0.273566     0.006663
CU1154   CU        0.521656    0.371988    0.271447     0.006663
CU1155   CU        0.523955    0.400034    0.304572     0.006663
CU1156   CU        0.555184    0.372981    0.306721     0.006663
CU1157   CU        0.557054    0.402413    0.272977     0.006663
CU1158   CU        0.589056    0.376252    0.277324     0.006663
CU1159   CU        0.588927    0.404418    0.308079     0.006663
CU1160   CU        0.624051    0.375925    0.310837     0.006663
CU1161   CU        0.621288    0.404233    0.276855     0.006663
CU1162   CU        0.652312    0.375978    0.275596     0.006663
NI1163   NI        0.655918    0.402122    0.308145     0.004307
NI1164   NI        0.687527    0.371790    0.308240     0.004307
NI1165   NI        0.686418    0.402485    0.273191     0.004307
NI1166   NI        0.715864    0.369725    0.272279     0.004307
NI1167   NI        0.718158    0.401242    0.307524     0.004307
NI1168   NI        0.770431    0.367912    0.298313     0.004307
NI1169   NI        0.768443    0.399204    0.262514     0.004307
CU1170   CU        0.800696    0.369803    0.262085     0.006663
NI1171   NI        0.800766    0.400166    0.295906     0.004307
NI1172   NI        0.833420    0.370591    0.295860     0.004307
NI1173   NI        0.833864    0.400487    0.261560     0.004307
NI1174   NI        0.864398    0.368693    0.261102     0.004307
NI1175   NI        0.865222    0.399328    0.298470     0.004307
NI1176   NI        0.045872    0.431048    0.263779     0.004307
NI1177   NI        0.041604    0.460201    0.299309     0.004307
CU1178   CU        0.073542    0.429725    0.299749     0.006663
NI1179   NI        0.075225    0.460352    0.263255     0.004307
NI1180   NI        0.108981    0.429937    0.263947     0.004307
NI1181   NI        0.108180    0.461498    0.293708     0.004307
NI1182   NI        0.151977    0.426412    0.309785     0.004307
NI1183   NI        0.139813    0.464000    0.261382     0.004307
NI1184   NI        0.187364    0.430155    0.274391     0.004307
NI1185   NI        0.187716    0.457415    0.307604     0.004307
NI1186   NI        0.220283    0.427669    0.307600     0.004307
NI1187   NI        0.221524    0.458118    0.275195     0.004307
CU1188   CU        0.254177    0.428802    0.273588     0.006663
CU1189   CU        0.255343    0.458658    0.307125     0.006663
CU1190   CU        0.286872    0.430783    0.304382     0.006663
CU1191   CU        0.288411    0.459382    0.272874     0.006663
CU1192   CU        0.318651    0.429538    0.271065     0.006663
CU1193   CU        0.323492    0.458048    0.305691     0.006663
CU1194   CU        0.355678    0.428546    0.305866     0.006663
CU1195   CU        0.354735    0.458133    0.272459     0.006663
CU1196   CU        0.387162    0.428475    0.270967     0.006663
CU1197   CU        0.387490    0.457479    0.305819     0.006663
CU1198   CU        0.420505    0.426816    0.305053     0.006663
CU1199   CU        0.420734    0.457926    0.273278     0.006663
CU1200   CU        0.455274    0.428774    0.271792     0.006663
CU1201   CU        0.455515    0.456604    0.306428     0.006663
CU1202   CU        0.489988    0.427487    0.305878     0.006663
CU1203   CU        0.488078    0.458508    0.271784     0.006663
CU1204   CU        0.522153    0.427767    0.272478     0.006663
CU1205   CU        0.524625    0.458495    0.305736     0.006663
CU1206   CU        0.558640    0.431411    0.306863     0.006663
CU1207   CU        0.556413    0.458734    0.274205     0.006663
CU1208   CU        0.590180    0.431292    0.272952     0.006663
CU1209   CU        0.590589    0.460313    0.305670     0.006663
CU1210   CU        0.622799    0.432481    0.307475     0.006663
CU1211   CU        0.623924    0.461585    0.273062     0.006663
NI1212   NI        0.656520    0.432656    0.274108     0.004307
NI1213   NI        0.656013    0.463764    0.308723     0.004307
CU1214   CU        0.689765    0.430250    0.309303     0.006663
NI1215   NI        0.687404    0.462331    0.275832     0.004307
NI1216   NI        0.739526    0.433851    0.259939     0.004307
NI1217   NI        0.738318    0.464594    0.294522     0.004307
NI1218   NI        0.768522    0.430574    0.293433     0.004307
NI1219   NI        0.771235    0.462901    0.260280     0.004307
NI1220   NI        0.802306    0.430855    0.261751     0.004307
NI1221   NI        0.802775    0.463999    0.297012     0.004307
NI1222   NI        0.834669    0.431901    0.297687     0.004307
CU1223   CU        0.835095    0.460956    0.263010     0.006663
NI1224   NI        0.865099    0.429752    0.265269     0.004307
CU1225   CU        0.865467    0.461471    0.299027     0.006663
NI1226   NI        0.043835    0.490679    0.264405     0.004307
NI1227   NI        0.044182    0.520450    0.298391     0.004307
CU1228   CU        0.075077    0.491170    0.297474     0.006663
NI1229   NI        0.074934    0.520694    0.264318     0.004307
CU1230   CU        0.107620    0.492577    0.262140     0.006663
NI1231   NI        0.107271    0.523504    0.295574     0.004307
NI1232   NI        0.139461    0.494753    0.293989     0.004307
CU1233   CU        0.138869    0.522731    0.262674     0.006663
NI1234   NI        0.173061    0.492180    0.260303     0.004307
NI1235   NI        0.172812    0.522641    0.295373     0.004307
NI1236   NI        0.220692    0.487067    0.306788     0.004307
NI1237   NI        0.203845    0.521060    0.258929     0.004307
NI1238   NI        0.254597    0.487442    0.274661     0.004307
NI1239   NI        0.254861    0.519755    0.307797     0.004307
CU1240   CU        0.290096    0.489057    0.306178     0.006663
NI1241   NI        0.287226    0.518894    0.276531     0.004307
CU1242   CU        0.321775    0.488937    0.271777     0.006663
CU1243   CU        0.323161    0.518091    0.305946     0.006663
CU1244   CU        0.355396    0.488434    0.305517     0.006663
NI1245   NI        0.355232    0.517903    0.270870     0.004307
CU1246   CU        0.387796    0.488633    0.272482     0.006663
CU1247   CU        0.389721    0.518281    0.305152     0.006663
CU1248   CU        0.422049    0.487401    0.306530     0.006663
CU1249   CU        0.421982    0.519179    0.272019     0.006663
CU1250   CU        0.452019    0.487874    0.273957     0.006663
CU1251   CU        0.456674    0.516556    0.305377     0.006663
CU1252   CU        0.487530    0.489092    0.305760     0.006663
CU1253   CU        0.486695    0.517604    0.272765     0.006663
CU1254   CU        0.520435    0.489362    0.271849     0.006663
NI1255   NI        0.521029    0.516860    0.306614     0.004307
CU1256   CU        0.557204    0.488756    0.303916     0.006663
NI1257   NI        0.566482    0.523972    0.264353     0.004307
CU1258   CU        0.590944    0.488896    0.272945     0.006663
CU1259   CU        0.589735    0.520044    0.307399     0.006663
CU1260   CU        0.621802    0.490738    0.306695     0.006663
NI1261   NI        0.632066    0.527692    0.260630     0.004307
CU1262   CU        0.653701    0.491260    0.274681     0.006663
CU1263   CU        0.655218    0.521366    0.306354     0.006663
CU1264   CU        0.686661    0.492325    0.308142     0.006663
NI1265   NI        0.701713    0.523023    0.257359     0.004307
NI1266   NI        0.735925    0.495141    0.261358     0.004307
NI1267   NI        0.739525    0.520866    0.296807     0.004307
NI1268   NI        0.770747    0.492555    0.299292     0.004307
NI1269   NI        0.768933    0.520993    0.262387     0.004307
NI1270   NI        0.803789    0.493695    0.263793     0.004307
NI1271   NI        0.802247    0.521799    0.299265     0.004307
NI1272   NI        0.835319    0.493480    0.298565     0.004307
NI1273   NI        0.836610    0.522758    0.263365     0.004307
CU1274   CU        0.865079    0.489736    0.265946     0.006663
NI1275   NI        0.864326    0.521997    0.299251     0.004307
CU1276   CU        0.078937    0.552884    0.297639     0.006663
NI1277   NI        0.080446    0.582380    0.265939     0.004307
NI1278   NI        0.111398    0.553108    0.264925     0.004307
NI1279   NI        0.112511    0.583416    0.299708     0.004307
NI1280   NI        0.141853    0.553512    0.299221     0.004307
CU1281   CU        0.144993    0.583487    0.266954     0.006663
NI1282   NI        0.175131    0.552473    0.264759     0.004307
NI1283   NI        0.178496    0.586848    0.299979     0.004307
NI1284   NI        0.223267    0.550455    0.308151     0.004307
CU1285   CU        0.219739    0.582796    0.278523     0.006663
NI1286   NI        0.256071    0.552927    0.277159     0.004307
CU1287   CU        0.256843    0.581371    0.315160     0.006663
CU1288   CU        0.287942    0.550769    0.308491     0.006663
NI1289   NI        0.289203    0.580602    0.277387     0.004307
CU1290   CU        0.322059    0.549780    0.272393     0.006663
NI1291   NI        0.322404    0.578551    0.310558     0.004307
NI1292   NI        0.354178    0.547522    0.306633     0.004307
CU1293   CU        0.355271    0.578415    0.273608     0.006663
CU1294   CU        0.386338    0.548233    0.270554     0.006663
CU1295   CU        0.390693    0.576499    0.304437     0.006663
CU1296   CU        0.422091    0.548536    0.306526     0.006663
CU1297   CU        0.423897    0.577485    0.271664     0.006663
CU1298   CU        0.456408    0.547768    0.272440     0.006663
CU1299   CU        0.456139    0.578917    0.304801     0.006663
CU1300   CU        0.488628    0.546001    0.307031     0.006663
CU1301   CU        0.489075    0.577956    0.271620     0.006663
NI1302   NI        0.532134    0.553843    0.257977     0.004307
NI1303   NI        0.520975    0.581422    0.306481     0.004307
CU1304   CU        0.567364    0.554626    0.295556     0.006663
NI1305   NI        0.563631    0.582660    0.259772     0.004307
CU1306   CU        0.597214    0.555013    0.259146     0.006663
NI1307   NI        0.596619    0.584221    0.289924     0.004307
CU1308   CU        0.622302    0.551477    0.304665     0.006663
NI1309   NI        0.632199    0.584532    0.256764     0.004307
CU1310   CU        0.668383    0.554072    0.259534     0.006663
NI1311   NI        0.656677    0.580962    0.308566     0.004307
CU1312   CU        0.690940    0.554067    0.307420     0.006663
NI1313   NI        0.701431    0.589119    0.259886     0.004307
NI1314   NI        0.735154    0.551183    0.260288     0.004307
NI1315   NI        0.723077    0.583470    0.312271     0.004307
NI1316   NI        0.769882    0.551659    0.297449     0.004307
NI1317   NI        0.765689    0.582814    0.264129     0.004307
NI1318   NI        0.800380    0.550456    0.262788     0.004307
NI1319   NI        0.799836    0.583769    0.299690     0.004307
CU1320   CU        0.831406    0.553051    0.298142     0.006663
NI1321   NI        0.828463    0.584432    0.264065     0.004307
NI1322   NI        0.081596    0.615038    0.299142     0.004307
NI1323   NI        0.115377    0.613073    0.268146     0.004307
CU1324   CU        0.112699    0.644972    0.302096     0.006663
CU1325   CU        0.144015    0.613713    0.300623     0.006663
NI1326   NI        0.145649    0.644455    0.269741     0.004307
NI1327   NI        0.174868    0.612150    0.264199     0.004307
NI1328   NI        0.178161    0.645467    0.299858     0.004307
NI1329   NI        0.211158    0.618437    0.296249     0.004307
CU1330   CU        0.214667    0.649295    0.266957     0.006663
NI1331   NI        0.245725    0.617763    0.262049     0.004307
NI1332   NI        0.248156    0.648867    0.299304     0.004307
NI1333   NI        0.279697    0.618397    0.294605     0.004307
NI1334   NI        0.281691    0.648358    0.264502     0.004307
CU1335   CU        0.321430    0.608682    0.277165     0.006663
NI1336   NI        0.317188    0.650774    0.295782     0.004307
CU1337   CU        0.361024    0.607121    0.303048     0.006663
CU1338   CU        0.355790    0.637123    0.272123     0.006663
NI1339   NI        0.390892    0.607387    0.272803     0.004307
NI1340   NI        0.390845    0.638706    0.309163     0.004307
NI1341   NI        0.424445    0.608600    0.305791     0.004307
CU1342   CU        0.421920    0.641113    0.272299     0.006663
NI1343   NI        0.455608    0.606657    0.273674     0.004307
NI1344   NI        0.454873    0.638728    0.306229     0.004307
CU1345   CU        0.490875    0.611123    0.305355     0.006663
NI1346   NI        0.486834    0.641443    0.273424     0.004307
NI1347   NI        0.520866    0.606593    0.270623     0.004307
CU1348   CU        0.522724    0.641876    0.306905     0.006663
NI1349   NI        0.552947    0.611563    0.308246     0.004307
NI1350   NI        0.563685    0.647174    0.256657     0.004307
NI1351   NI        0.595945    0.614376    0.255148     0.004307
NI1352   NI        0.592887    0.643381    0.311165     0.004307
NI1353   NI        0.623527    0.612028    0.309065     0.004307
NI1354   NI        0.631149    0.646458    0.259943     0.004307
NI1355   NI        0.666099    0.616135    0.259740     0.004307
NI1356   NI        0.665343    0.649512    0.299096     0.004307
NI1357   NI        0.700980    0.619618    0.298890     0.004307
NI1358   NI        0.699166    0.645382    0.263337     0.004307
NI1359   NI        0.732093    0.615996    0.264645     0.004307
NI1360   NI        0.734525    0.647457    0.299168     0.004307
CU1361   CU        0.767957    0.617547    0.299645     0.006663
NI1362   NI        0.764604    0.644691    0.267864     0.004307
NI1363   NI        0.797624    0.614463    0.265169     0.004307
NI1364   NI        0.799373    0.645000    0.302996     0.004307
NI1365   NI        0.831157    0.613055    0.301097     0.004307
NI1366   NI        0.146414    0.673223    0.303826     0.004307
NI1367   NI        0.179010    0.676150    0.268753     0.004307
CU1368   CU        0.177780    0.704109    0.301946     0.006663
CU1369   CU        0.210566    0.675989    0.302404     0.006663
NI1370   NI        0.211753    0.704054    0.272448     0.004307
NI1371   NI        0.247618    0.678345    0.265511     0.004307
NI1372   NI        0.247326    0.706134    0.299855     0.004307
NI1373   NI        0.282476    0.677288    0.296591     0.004307
NI1374   NI        0.280109    0.707340    0.265802     0.004307
NI1375   NI        0.314831    0.677347    0.264870     0.004307
CU1376   CU        0.315822    0.706486    0.299170     0.006663
NI1377   NI        0.350105    0.678845    0.296303     0.004307
NI1378   NI        0.351646    0.707364    0.263345     0.004307
CU1379   CU        0.386198    0.677556    0.269529     0.006663
NI1380   NI        0.384716    0.708398    0.297903     0.004307
NI1381   NI        0.417145    0.677739    0.299325     0.004307
NI1382   NI        0.417589    0.707453    0.262446     0.004307
NI1383   NI        0.452905    0.671452    0.271721     0.004307
NI1384   NI        0.450611    0.706879    0.294521     0.004307
NI1385   NI        0.487708    0.669516    0.305000     0.004307
NI1386   NI        0.486869    0.700968    0.271345     0.004307
NI1387   NI        0.522153    0.666949    0.267103     0.004307
CU1388   CU        0.531424    0.706173    0.294530     0.006663
NI1389   NI        0.567276    0.678684    0.313898     0.004307
NI1390   NI        0.563660    0.708615    0.262097     0.004307
CU1391   CU        0.595937    0.678579    0.262801     0.006663
NI1392   NI        0.595656    0.707418    0.297925     0.004307
NI1393   NI        0.632095    0.678507    0.295279     0.004307
CU1394   CU        0.630696    0.707327    0.262692     0.006663
NI1395   NI        0.664311    0.675805    0.263035     0.004307
NI1396   NI        0.665958    0.707923    0.299032     0.004307
CU1397   CU        0.697579    0.677283    0.298082     0.006663
NI1398   NI        0.694904    0.704100    0.263589     0.004307
NI1399   NI        0.731122    0.676821    0.264525     0.004307
NI1400   NI        0.732572    0.705358    0.301160     0.004307
CU1401   CU        0.766112    0.675127    0.303884     0.006663
NI1402   NI        0.213487    0.734813    0.299213     0.004307
NI1403   NI        0.247445    0.735045    0.270471     0.004307
CU1404   CU        0.247483    0.764015    0.300962     0.006663
CU1405   CU        0.282459    0.734201    0.299304     0.006663
CU1406   CU        0.281030    0.759948    0.262384     0.006663
CU1407   CU        0.315461    0.734889    0.266344     0.006663
CU1408   CU        0.315245    0.765580    0.297378     0.006663
NI1409   NI        0.349906    0.736395    0.297234     0.004307
NI1410   NI        0.348458    0.762572    0.261142     0.004307
CU1411   CU        0.383271    0.735658    0.262684     0.006663
NI1412   NI        0.383877    0.764931    0.296635     0.004307
CU1413   CU        0.419407    0.736356    0.294909     0.006663
CU1414   CU        0.418385    0.764311    0.263431     0.006663
NI1415   NI        0.452302    0.735405    0.261207     0.004307
NI1416   NI        0.454691    0.762686    0.295139     0.004307
NI1417   NI        0.490451    0.736592    0.295603     0.004307
NI1418   NI        0.492591    0.765822    0.265297     0.004307
NI1419   NI        0.528859    0.737260    0.262572     0.004307
NI1420   NI        0.527470    0.765991    0.296266     0.004307
CU1421   CU        0.561668    0.736776    0.296395     0.006663
NI1422   NI        0.561005    0.765249    0.261272     0.004307
NI1423   NI        0.597669    0.737835    0.264187     0.004307
CU1424   CU        0.595712    0.765840    0.297684     0.006663
CU1425   CU        0.629688    0.736229    0.296334     0.006663
CU1426   CU        0.629530    0.766122    0.261242     0.006663
NI1427   NI        0.661600    0.736593    0.264515     0.004307
NI1428   NI        0.667273    0.763979    0.298715     0.004307
CU1429   CU        0.702512    0.734436    0.298011     0.006663
NI1430   NI        0.350052    0.791876    0.299359     0.004307
NI1431   NI        0.378659    0.792167    0.259192     0.004307
NI1432   NI        0.420678    0.792746    0.295707     0.004307
NI1433   NI        0.456222    0.791215    0.264059     0.004307
NI1434   NI        0.493162    0.792759    0.296608     0.004307
NI1435   NI        0.525831    0.792103    0.260464     0.004307
NI1436   NI        0.563091    0.816484    0.330498     0.004307
NI1437   NI        0.387340    0.040499    0.366457     0.004307
NI1438   NI        0.422156    0.040650    0.329184     0.004307
NI1439   NI        0.456826    0.041323    0.364476     0.004307
NI1440   NI        0.491185    0.042532    0.333424     0.004307
NI1441   NI        0.524581    0.039455    0.367286     0.004307
NI1442   NI        0.212027    0.094524    0.330937     0.004307
NI1443   NI        0.244399    0.095272    0.367274     0.004307
CU1444   CU        0.278013    0.069584    0.366120     0.006663
NI1445   NI        0.280292    0.095254    0.331235     0.004307
NI1446   NI        0.314110    0.068211    0.328778     0.004307
NI1447   NI        0.315725    0.092456    0.364831     0.004307
CU1448   CU        0.351482    0.068299    0.368392     0.006663
NI1449   NI        0.350563    0.094324    0.330213     0.004307
NI1450   NI        0.387185    0.068842    0.330674     0.004307
CU1451   CU        0.386246    0.095335    0.366784     0.006663
NI1452   NI        0.418701    0.069114    0.365665     0.004307
CU1453   CU        0.420682    0.095430    0.329061     0.006663
NI1454   NI        0.456774    0.068624    0.329918     0.004307
NI1455   NI        0.456141    0.094856    0.365975     0.004307
NI1456   NI        0.491166    0.070159    0.363645     0.004307
NI1457   NI        0.491230    0.095691    0.331663     0.004307
NI1458   NI        0.527934    0.067753    0.335189     0.004307
NI1459   NI        0.527781    0.094906    0.366834     0.004307
NI1460   NI        0.561292    0.067036    0.368142     0.004307
NI1461   NI        0.564825    0.093735    0.330391     0.004307
NI1462   NI        0.597741    0.067918    0.327924     0.004307
NI1463   NI        0.598792    0.094126    0.363393     0.004307
NI1464   NI        0.632287    0.066756    0.364788     0.004307
NI1465   NI        0.633918    0.096005    0.329070     0.004307
CU1466   CU        0.666074    0.097215    0.364662     0.006663
NI1467   NI        0.697893    0.097781    0.329781     0.004307
NI1468   NI        0.110918    0.157219    0.369590     0.004307
CU1469   CU        0.144783    0.127541    0.364529     0.006663
NI1470   NI        0.144414    0.157358    0.333132     0.004307
NI1471   NI        0.180322    0.127181    0.334880     0.004307
NI1472   NI        0.178221    0.152918    0.368444     0.004307
NI1473   NI        0.211273    0.124466    0.367786     0.004307
NI1474   NI        0.211732    0.153685    0.332298     0.004307
NI1475   NI        0.246022    0.123635    0.332248     0.004307
NI1476   NI        0.242614    0.153940    0.369062     0.004307
CU1477   CU        0.277928    0.123309    0.366664     0.006663
NI1478   NI        0.277459    0.151877    0.332812     0.004307
NI1479   NI        0.312420    0.123676    0.332569     0.004307
NI1480   NI        0.315202    0.149236    0.366851     0.004307
NI1481   NI        0.348477    0.121489    0.366815     0.004307
NI1482   NI        0.348451    0.148585    0.330507     0.004307
NI1483   NI        0.382721    0.122589    0.330472     0.004307
NI1484   NI        0.381962    0.147851    0.365422     0.004307
NI1485   NI        0.420491    0.121757    0.364112     0.004307
NI1486   NI        0.419368    0.148376    0.332480     0.004307
NI1487   NI        0.455247    0.121725    0.330264     0.004307
NI1488   NI        0.454606    0.146202    0.363722     0.004307
NI1489   NI        0.491340    0.120124    0.369935     0.004307
NI1490   NI        0.493301    0.151515    0.334293     0.004307
CU1491   CU        0.527876    0.121784    0.328396     0.006663
NI1492   NI        0.527229    0.150773    0.361985     0.004307
NI1493   NI        0.561018    0.123326    0.365730     0.004307
NI1494   NI        0.561307    0.151301    0.331211     0.004307
CU1495   CU        0.599606    0.123794    0.330736     0.006663
CU1496   CU        0.599940    0.150479    0.366162     0.006663
CU1497   CU        0.631774    0.122726    0.364617     0.006663
NI1498   NI        0.631341    0.154990    0.331553     0.004307
NI1499   NI        0.666450    0.125173    0.330323     0.004307
CU1500   CU        0.668692    0.151496    0.366039     0.006663
NI1501   NI        0.700941    0.125865    0.365324     0.004307
NI1502   NI        0.699461    0.154618    0.332213     0.004307
NI1503   NI        0.733640    0.127452    0.331586     0.004307
NI1504   NI        0.734000    0.157376    0.367461     0.004307
NI1505   NI        0.766064    0.130071    0.366251     0.004307
NI1506   NI        0.769045    0.156575    0.332654     0.004307
NI1507   NI        0.800879    0.156313    0.366308     0.004307
NI1508   NI        0.079213    0.214326    0.331316     0.004307
NI1509   NI        0.111610    0.186005    0.333516     0.004307
NI1510   NI        0.107441    0.213202    0.366598     0.004307
NI1511   NI        0.143490    0.183341    0.368500     0.004307
NI1512   NI        0.142395    0.214870    0.335987     0.004307
NI1513   NI        0.178020    0.186141    0.333855     0.004307
NI1514   NI        0.175455    0.212241    0.368621     0.004307
NI1515   NI        0.208037    0.182638    0.367006     0.004307
NI1516   NI        0.212561    0.210932    0.334742     0.004307
NI1517   NI        0.244082    0.182576    0.333281     0.004307
NI1518   NI        0.255956    0.227291    0.372675     0.004307
NI1519   NI        0.283927    0.177180    0.364377     0.004307
NI1520   NI        0.288645    0.225958    0.337725     0.004307
CU1521   CU        0.317185    0.178518    0.332712     0.006663
CU1522   CU        0.319967    0.221457    0.372140     0.006663
NI1523   NI        0.349647    0.174826    0.365722     0.004307
NI1524   NI        0.357496    0.225742    0.338945     0.004307
NI1525   NI        0.390912    0.196544    0.336070     0.004307
CU1526   CU        0.389308    0.225637    0.371431     0.006663
CU1527   CU        0.416402    0.178005    0.366109     0.006663
NI1528   NI        0.423933    0.225723    0.339533     0.004307
NI1529   NI        0.448983    0.175208    0.335615     0.004307
CU1530   CU        0.457967    0.226462    0.372968     0.006663
NI1531   NI        0.503233    0.187419    0.367140     0.004307
NI1532   NI        0.491717    0.225430    0.338139     0.004307
NI1533   NI        0.525907    0.179097    0.328715     0.004307
NI1534   NI        0.521537    0.224713    0.371591     0.004307
NI1535   NI        0.545553    0.193735    0.366006     0.004307
NI1536   NI        0.559985    0.208852    0.326292     0.004307
NI1537   NI        0.597386    0.183622    0.327483     0.004307
CU1538   CU        0.587888    0.225491    0.369014     0.006663
CU1539   CU        0.631988    0.184708    0.365927     0.006663
CU1540   CU        0.631033    0.212471    0.327706     0.006663
NI1541   NI        0.666382    0.186028    0.329046     0.004307
NI1542   NI        0.668055    0.211276    0.364620     0.004307
NI1543   NI        0.698852    0.183890    0.365948     0.004307
CU1544   CU        0.703273    0.213394    0.332187     0.006663
NI1545   NI        0.734538    0.183802    0.334360     0.004307
NI1546   NI        0.736815    0.212285    0.368896     0.004307
CU1547   CU        0.771403    0.185002    0.367055     0.006663
NI1548   NI        0.769510    0.214610    0.333463     0.004307
CU1549   CU        0.801909    0.187300    0.332580     0.006663
CU1550   CU        0.803129    0.215217    0.366765     0.006663
NI1551   NI        0.832228    0.217308    0.331840     0.004307
NI1552   NI        0.045681    0.274081    0.368388     0.004307
NI1553   NI        0.076879    0.244629    0.366202     0.004307
CU1554   CU        0.079078    0.274576    0.334093     0.006663
NI1555   NI        0.108534    0.245651    0.333085     0.004307
NI1556   NI        0.110410    0.274342    0.367739     0.004307
NI1557   NI        0.140785    0.243144    0.369202     0.004307
NI1558   NI        0.141117    0.272887    0.332133     0.004307
NI1559   NI        0.177351    0.241449    0.333591     0.004307
NI1560   NI        0.191710    0.282951    0.372714     0.004307
NI1561   NI        0.223116    0.255927    0.371501     0.004307
NI1562   NI        0.221049    0.286064    0.339483     0.004307
NI1563   NI        0.255961    0.254963    0.339045     0.004307
CU1564   CU        0.255853    0.282979    0.373159     0.006663
NI1565   NI        0.289031    0.252437    0.373921     0.004307
NI1566   NI        0.288964    0.282877    0.340121     0.004307
CU1567   CU        0.321753    0.253683    0.340306     0.006663
NI1568   NI        0.321982    0.282927    0.372433     0.004307
CU1569   CU        0.353769    0.251879    0.372891     0.006663
CU1570   CU        0.354352    0.282839    0.337517     0.006663
CU1571   CU        0.389255    0.256872    0.340714     0.006663
CU1572   CU        0.389849    0.284985    0.374391     0.006663
CU1573   CU        0.422323    0.255579    0.372799     0.006663
CU1574   CU        0.421918    0.283255    0.340322     0.006663
NI1575   NI        0.456252    0.254874    0.339345     0.004307
CU1576   CU        0.457591    0.283052    0.373433     0.006663
NI1577   NI        0.490253    0.254096    0.373038     0.004307
CU1578   CU        0.490574    0.283990    0.341240     0.006663
CU1579   CU        0.529532    0.244100    0.326091     0.006663
CU1580   CU        0.522748    0.282542    0.373133     0.006663
CU1581   CU        0.553695    0.254130    0.370189     0.006663
NI1582   NI        0.553056    0.282423    0.339620     0.004307
NI1583   NI        0.587275    0.254911    0.340179     0.004307
CU1584   CU        0.584702    0.283965    0.373962     0.006663
CU1585   CU        0.617867    0.255739    0.371232     0.006663
CU1586   CU        0.615655    0.287902    0.343281     0.006663
NI1587   NI        0.671317    0.240534    0.332690     0.004307
CU1588   CU        0.651737    0.286144    0.373097     0.006663
NI1589   NI        0.702997    0.238146    0.368714     0.004307
NI1590   NI        0.677591    0.282290    0.338760     0.004307
CU1591   CU        0.735427    0.245045    0.333953     0.006663
NI1592   NI        0.738049    0.273388    0.370755     0.004307
CU1593   CU        0.771581    0.242930    0.367280     0.006663
NI1594   NI        0.768520    0.278168    0.333591     0.004307
NI1595   NI        0.800109    0.246410    0.333074     0.004307
NI1596   NI        0.803250    0.275899    0.368063     0.004307
NI1597   NI        0.834464    0.245884    0.366206     0.004307
NI1598   NI        0.835170    0.275795    0.335006     0.004307
NI1599   NI        0.867639    0.275467    0.368365     0.004307
CU1600   CU        0.045945    0.307566    0.334038     0.006663
NI1601   NI        0.045951    0.334877    0.369014     0.004307
NI1602   NI        0.075955    0.305187    0.367416     0.004307
NI1603   NI        0.077170    0.337303    0.330130     0.004307
CU1604   CU        0.109845    0.304665    0.335494     0.006663
NI1605   NI        0.108438    0.334213    0.366355     0.004307
NI1606   NI        0.141710    0.305815    0.365779     0.004307
NI1607   NI        0.140628    0.336020    0.331933     0.004307
NI1608   NI        0.186112    0.313244    0.343656     0.004307
NI1609   NI        0.188578    0.342678    0.375570     0.004307
NI1610   NI        0.219119    0.312825    0.373811     0.004307
CU1611   CU        0.219850    0.339752    0.340752     0.006663
CU1612   CU        0.255010    0.311376    0.337788     0.006663
CU1613   CU        0.253001    0.340024    0.372929     0.006663
NI1614   NI        0.289145    0.311959    0.373419     0.004307
NI1615   NI        0.286489    0.340163    0.341551     0.004307
NI1616   NI        0.321770    0.311649    0.340388     0.004307
CU1617   CU        0.321665    0.341801    0.371987     0.006663
CU1618   CU        0.354118    0.311880    0.374339     0.006663
CU1619   CU        0.354286    0.340831    0.338555     0.006663
NI1620   NI        0.387304    0.312505    0.337935     0.004307
CU1621   CU        0.388903    0.341798    0.372635     0.006663
CU1622   CU        0.422980    0.312606    0.372462     0.006663
CU1623   CU        0.422210    0.340862    0.337137     0.006663
NI1624   NI        0.458065    0.312043    0.338664     0.004307
CU1625   CU        0.459747    0.339723    0.374191     0.006663
CU1626   CU        0.491062    0.312205    0.372285     0.006663
NI1627   NI        0.489602    0.341048    0.338737     0.004307
CU1628   CU        0.521434    0.312533    0.340146     0.006663
CU1629   CU        0.522159    0.341137    0.372786     0.006663
CU1630   CU        0.555086    0.312657    0.372271     0.006663
CU1631   CU        0.556068    0.343770    0.339968     0.006663
CU1632   CU        0.585860    0.315224    0.341133     0.006663
CU1633   CU        0.589817    0.343203    0.373529     0.006663
NI1634   NI        0.619862    0.315526    0.372643     0.004307
CU1635   CU        0.622396    0.345339    0.341692     0.006663
NI1636   NI        0.650995    0.314322    0.340030     0.004307
CU1637   CU        0.655650    0.343260    0.372824     0.006663
NI1638   NI        0.685098    0.313112    0.370864     0.004307
NI1639   NI        0.686438    0.341876    0.338638     0.004307
NI1640   NI        0.738903    0.308630    0.332416     0.004307
CU1641   CU        0.741152    0.337086    0.365209     0.006663
NI1642   NI        0.771149    0.306066    0.366213     0.004307
CU1643   CU        0.772818    0.336331    0.334269     0.006663
NI1644   NI        0.801599    0.304331    0.330178     0.004307
CU1645   CU        0.802380    0.337030    0.367043     0.006663
NI1646   NI        0.834178    0.306465    0.368087     0.004307
CU1647   CU        0.834228    0.336642    0.332330     0.006663
NI1648   NI        0.865021    0.306595    0.331316     0.004307
NI1649   NI        0.865543    0.336790    0.368006     0.004307
NI1650   NI        0.013795    0.366507    0.369033     0.004307
CU1651   CU        0.011668    0.396316    0.334791     0.006663
NI1652   NI        0.044184    0.366643    0.333211     0.004307
NI1653   NI        0.044141    0.398608    0.367022     0.004307
NI1654   NI        0.075761    0.364109    0.367150     0.004307
CU1655   CU        0.075152    0.398056    0.330117     0.006663
NI1656   NI        0.108676    0.366274    0.332151     0.004307
NI1657   NI        0.100331    0.399050    0.365525     0.004307
NI1658   NI        0.152546    0.371758    0.377067     0.004307
NI1659   NI        0.156134    0.398565    0.341645     0.004307
CU1660   CU        0.188229    0.371022    0.340185     0.006663
NI1661   NI        0.188789    0.398519    0.376124     0.004307
CU1662   CU        0.222301    0.371433    0.372534     0.006663
NI1663   NI        0.220158    0.398993    0.340709     0.004307
CU1664   CU        0.252266    0.367379    0.339888     0.006663
NI1665   NI        0.255356    0.401684    0.373121     0.004307
CU1666   CU        0.287755    0.372008    0.371592     0.006663
CU1667   CU        0.289716    0.400947    0.337559     0.006663
CU1668   CU        0.320845    0.368431    0.337773     0.006663
CU1669   CU        0.320847    0.399489    0.372288     0.006663
CU1670   CU        0.357030    0.371361    0.370430     0.006663
CU1671   CU        0.354927    0.399569    0.339730     0.006663
CU1672   CU        0.391892    0.369310    0.336573     0.006663
CU1673   CU        0.390907    0.401264    0.372729     0.006663
CU1674   CU        0.422184    0.369926    0.373563     0.006663
CU1675   CU        0.421392    0.401647    0.338872     0.006663
CU1676   CU        0.456189    0.369913    0.338429     0.006663
CU1677   CU        0.457443    0.400347    0.373110     0.006663
CU1678   CU        0.489186    0.370034    0.373642     0.006663
CU1679   CU        0.491021    0.399336    0.339210     0.006663
CU1680   CU        0.522841    0.369044    0.339340     0.006663
CU1681   CU        0.523781    0.398236    0.372869     0.006663
CU1682   CU        0.557921    0.371142    0.373550     0.006663
CU1683   CU        0.555147    0.402216    0.338429     0.006663
CU1684   CU        0.587307    0.371424    0.340715     0.006663
CU1685   CU        0.589892    0.400264    0.372398     0.006663
NI1686   NI        0.623505    0.373147    0.374497     0.004307
CU1687   CU        0.623487    0.403343    0.342995     0.006663
CU1688   CU        0.657370    0.373293    0.341660     0.006663
CU1689   CU        0.657248    0.400532    0.374868     0.006663
NI1690   NI        0.689567    0.369821    0.373055     0.004307
NI1691   NI        0.688596    0.400755    0.341716     0.004307
NI1692   NI        0.740627    0.368875    0.335955     0.004307
NI1693   NI        0.741803    0.400923    0.365239     0.004307
NI1694   NI        0.773915    0.368726    0.366322     0.004307
NI1695   NI        0.774717    0.397952    0.335990     0.004307
CU1696   CU        0.803460    0.367444    0.330153     0.006663
CU1697   CU        0.806223    0.399534    0.366583     0.006663
NI1698   NI        0.834812    0.366268    0.365768     0.004307
CU1699   CU        0.835370    0.399483    0.331918     0.006663
NI1700   NI        0.867330    0.365246    0.332144     0.004307
NI1701   NI        0.865555    0.397462    0.367208     0.004307
NI1702   NI        0.896797    0.367106    0.368517     0.004307
NI1703   NI        0.896652    0.398120    0.334700     0.004307
NI1704   NI        0.013795    0.428447    0.366637     0.004307
NI1705   NI        0.011436    0.460032    0.334318     0.004307
NI1706   NI        0.043606    0.430341    0.332181     0.004307
CU1707   CU        0.044732    0.459832    0.367764     0.006663
NI1708   NI        0.074438    0.429308    0.368356     0.004307
NI1709   NI        0.075168    0.462480    0.335011     0.004307
NI1710   NI        0.104185    0.428761    0.334389     0.004307
NI1711   NI        0.102755    0.457346    0.370587     0.004307
NI1712   NI        0.135627    0.425350    0.369152     0.004307
NI1713   NI        0.144903    0.464851    0.324606     0.004307
NI1714   NI        0.190702    0.428559    0.339320     0.004307
NI1715   NI        0.188439    0.458249    0.378320     0.004307
CU1716   CU        0.220388    0.431190    0.374276     0.006663
NI1717   NI        0.222192    0.457513    0.339305     0.004307
CU1718   CU        0.254143    0.428932    0.342498     0.006663
CU1719   CU        0.256483    0.459630    0.373192     0.006663
CU1720   CU        0.289899    0.429907    0.373055     0.006663
CU1721   CU        0.288657    0.460343    0.339678     0.006663
CU1722   CU        0.321556    0.430824    0.339550     0.006663
CU1723   CU        0.321038    0.458876    0.370994     0.006663
CU1724   CU        0.356497    0.429934    0.371938     0.006663
CU1725   CU        0.355619    0.458649    0.339631     0.006663
CU1726   CU        0.388336    0.428940    0.340656     0.006663
CU1727   CU        0.388325    0.460207    0.373816     0.006663
CU1728   CU        0.422506    0.429794    0.374014     0.006663
CU1729   CU        0.420395    0.457736    0.340279     0.006663
CU1730   CU        0.456327    0.428363    0.338080     0.006663
CU1731   CU        0.457607    0.457479    0.371794     0.006663
CU1732   CU        0.491241    0.428255    0.372078     0.006663
CU1733   CU        0.489079    0.457889    0.338898     0.006663
CU1734   CU        0.524310    0.430361    0.336816     0.006663
CU1735   CU        0.525516    0.460076    0.373892     0.006663
CU1736   CU        0.557926    0.429488    0.374383     0.006663
CU1737   CU        0.557580    0.460080    0.338093     0.006663
NI1738   NI        0.591674    0.431923    0.341602     0.004307
CU1739   CU        0.590558    0.458661    0.375936     0.006663
CU1740   CU        0.625127    0.430795    0.376681     0.006663
CU1741   CU        0.623442    0.459854    0.341660     0.006663
CU1742   CU        0.656440    0.430917    0.340126     0.006663
CU1743   CU        0.655398    0.460302    0.372579     0.006663
NI1744   NI        0.686969    0.431988    0.375948     0.004307
CU1745   CU        0.687810    0.460064    0.340366     0.006663
NI1746   NI        0.719057    0.430194    0.342940     0.004307
CU1747   CU        0.719294    0.458235    0.376421     0.006663
NI1748   NI        0.773547    0.428652    0.365644     0.004307
NI1749   NI        0.770582    0.462112    0.330280     0.004307
NI1750   NI        0.805334    0.430278    0.331377     0.004307
NI1751   NI        0.804083    0.460023    0.365110     0.004307
NI1752   NI        0.835961    0.431748    0.364956     0.004307
NI1753   NI        0.837110    0.460102    0.332019     0.004307
NI1754   NI        0.866585    0.431489    0.330562     0.004307
CU1755   CU        0.867256    0.461291    0.366209     0.006663
NI1756   NI        0.897951    0.431653    0.364584     0.004307
NI1757   NI        0.899116    0.461725    0.332347     0.004307
NI1758   NI        0.011120    0.491482    0.369637     0.004307
NI1759   NI        0.044008    0.491544    0.333418     0.004307
NI1760   NI        0.049547    0.528430    0.365167     0.004307
NI1761   NI        0.071948    0.492166    0.370973     0.004307
NI1762   NI        0.075910    0.519985    0.329903     0.004307
CU1763   CU        0.108418    0.491444    0.324511     0.006663
NI1764   NI        0.116161    0.493887    0.368772     0.004307
NI1765   NI        0.158157    0.489384    0.380568     0.004307
NI1766   NI        0.137459    0.520550    0.328434     0.004307
NI1767   NI        0.176827    0.492266    0.323079     0.004307
CU1768   CU        0.190443    0.517372    0.378589     0.006663
CU1769   CU        0.221998    0.487459    0.375841     0.006663
NI1770   NI        0.218575    0.518686    0.342997     0.004307
CU1771   CU        0.255571    0.488284    0.337766     0.006663
CU1772   CU        0.254164    0.516350    0.371767     0.006663
CU1773   CU        0.289819    0.488863    0.375089     0.006663
CU1774   CU        0.289591    0.519305    0.341284     0.006663
NI1775   NI        0.322943    0.490141    0.339976     0.004307
CU1776   CU        0.323664    0.518245    0.374888     0.006663
CU1777   CU        0.356973    0.488533    0.373050     0.006663
CU1778   CU        0.355266    0.517616    0.338999     0.006663
CU1779   CU        0.388388    0.488996    0.340552     0.006663
CU1780   CU        0.388989    0.517742    0.373035     0.006663
CU1781   CU        0.424892    0.487514    0.371678     0.006663
CU1782   CU        0.422671    0.518337    0.336943     0.006663
CU1783   CU        0.455395    0.488627    0.338896     0.006663
NI1784   NI        0.456274    0.518840    0.371379     0.004307
NI1785   NI        0.489508    0.489643    0.372103     0.004307
CU1786   CU        0.487369    0.517810    0.339658     0.006663
CU1787   CU        0.522191    0.487310    0.339686     0.006663
CU1788   CU        0.522936    0.519760    0.371821     0.006663
CU1789   CU        0.558028    0.488348    0.372957     0.006663
NI1790   NI        0.556603    0.517616    0.341533     0.004307
CU1791   CU        0.591509    0.491215    0.338569     0.006663
CU1792   CU        0.589831    0.519206    0.373329     0.006663
CU1793   CU        0.624715    0.491090    0.374533     0.006663
CU1794   CU        0.624394    0.520772    0.338691     0.006663
CU1795   CU        0.657308    0.491281    0.340983     0.006663
NI1796   NI        0.656851    0.520988    0.373264     0.004307
CU1797   CU        0.690329    0.489735    0.372926     0.006663
CU1798   CU        0.687431    0.521800    0.340599     0.006663
NI1799   NI        0.739957    0.495032    0.333908     0.004307
CU1800   CU        0.720984    0.518746    0.371273     0.006663
NI1801   NI        0.776169    0.493485    0.365474     0.004307
NI1802   NI        0.773960    0.523601    0.331053     0.004307
NI1803   NI        0.805084    0.492168    0.331848     0.004307
CU1804   CU        0.802836    0.525403    0.365887     0.006663
NI1805   NI        0.836669    0.492647    0.364494     0.004307
NI1806   NI        0.834388    0.521986    0.334668     0.004307
NI1807   NI        0.867636    0.492052    0.333869     0.004307
NI1808   NI        0.866709    0.524162    0.366650     0.004307
NI1809   NI        0.897535    0.490284    0.370035     0.004307
CU1810   CU        0.047650    0.552827    0.330704     0.006663
NI1811   NI        0.074351    0.560996    0.367013     0.004307
NI1812   NI        0.093113    0.526368    0.369710     0.004307
NI1813   NI        0.082718    0.586231    0.332591     0.004307
NI1814   NI        0.110440    0.555801    0.331462     0.004307
CU1815   CU        0.109512    0.589558    0.369032     0.006663
NI1816   NI        0.140667    0.560218    0.367984     0.004307
NI1817   NI        0.142671    0.586757    0.336096     0.004307
NI1818   NI        0.188189    0.550385    0.347268     0.004307
CU1819   CU        0.177231    0.587148    0.365271     0.006663
NI1820   NI        0.222634    0.547318    0.376979     0.004307
NI1821   NI        0.220715    0.578258    0.342348     0.004307
CU1822   CU        0.253409    0.547220    0.341713     0.006663
CU1823   CU        0.253237    0.575161    0.377417     0.006663
CU1824   CU        0.288302    0.548251    0.375174     0.006663
CU1825   CU        0.289504    0.576851    0.345760     0.006663
CU1826   CU        0.323001    0.548532    0.342134     0.006663
CU1827   CU        0.322339    0.577343    0.376567     0.006663
NI1828   NI        0.354328    0.547561    0.374414     0.004307
NI1829   NI        0.355585    0.577363    0.340868     0.004307
NI1830   NI        0.390472    0.548105    0.342613     0.004307
CU1831   CU        0.387909    0.577723    0.370791     0.006663
CU1832   CU        0.424299    0.549475    0.372607     0.006663
CU1833   CU        0.423589    0.578022    0.339092     0.006663
CU1834   CU        0.456112    0.548203    0.337431     0.006663
CU1835   CU        0.457182    0.582044    0.373364     0.006663
CU1836   CU        0.487860    0.548546    0.371831     0.006663
CU1837   CU        0.489913    0.576727    0.338140     0.006663
CU1838   CU        0.520271    0.548289    0.338223     0.006663
CU1839   CU        0.523392    0.580598    0.373009     0.006663
CU1840   CU        0.556572    0.548255    0.370996     0.006663
NI1841   NI        0.555331    0.578375    0.339188     0.004307
NI1842   NI        0.589850    0.547989    0.340095     0.004307
CU1843   CU        0.588780    0.580777    0.370652     0.006663
NI1844   NI        0.622025    0.548677    0.372386     0.004307
NI1845   NI        0.622518    0.582361    0.340459     0.004307
NI1846   NI        0.655470    0.551048    0.339750     0.004307
CU1847   CU        0.655557    0.580776    0.372769     0.006663
NI1848   NI        0.689449    0.550558    0.373433     0.004307
NI1849   NI        0.689184    0.581123    0.341928     0.004307
CU1850   CU        0.722195    0.553175    0.344438     0.006663
CU1851   CU        0.721961    0.581790    0.373731     0.006663
NI1852   NI        0.774089    0.556211    0.368072     0.004307
NI1853   NI        0.767817    0.586999    0.331314     0.004307
CU1854   CU        0.799529    0.556070    0.332083     0.006663
CU1855   CU        0.803799    0.588106    0.370537     0.006663
NI1856   NI        0.835866    0.553067    0.368837     0.004307
CU1857   CU        0.833061    0.583971    0.334687     0.006663
NI1858   NI        0.862509    0.552981    0.331367     0.004307
NI1859   NI        0.868202    0.581658    0.367070     0.004307
NI1860   NI        0.078088    0.617387    0.367130     0.004307
NI1861   NI        0.079450    0.644597    0.332838     0.004307
CU1862   CU        0.111252    0.616704    0.335071     0.006663
NI1863   NI        0.107801    0.646631    0.370672     0.004307
NI1864   NI        0.143301    0.617836    0.369541     0.004307
NI1865   NI        0.145026    0.646053    0.336019     0.004307
CU1866   CU        0.175785    0.615773    0.333019     0.006663
NI1867   NI        0.177955    0.645470    0.366433     0.004307
NI1868   NI        0.211495    0.615673    0.365364     0.004307
NI1869   NI        0.209527    0.644684    0.332187     0.004307
CU1870   CU        0.241981    0.615748    0.330983     0.006663
NI1871   NI        0.244070    0.646821    0.367594     0.004307
CU1872   CU        0.284752    0.603666    0.380443     0.006663
CU1873   CU        0.284007    0.646688    0.331035     0.006663
CU1874   CU        0.322743    0.619367    0.322043     0.006663
NI1875   NI        0.316046    0.648334    0.364101     0.004307
NI1876   NI        0.356881    0.605440    0.374323     0.004307
NI1877   NI        0.351882    0.650337    0.330936     0.004307
CU1878   CU        0.392584    0.607449    0.339189     0.006663
NI1879   NI        0.392933    0.635719    0.374354     0.004307
CU1880   CU        0.425659    0.608922    0.372753     0.006663
CU1881   CU        0.424204    0.637663    0.340671     0.006663
CU1882   CU        0.459824    0.606714    0.338153     0.006663
CU1883   CU        0.457459    0.637406    0.372203     0.006663
NI1884   NI        0.491434    0.610814    0.371248     0.004307
NI1885   NI        0.491359    0.640382    0.338053     0.004307
CU1886   CU        0.520983    0.610452    0.340250     0.006663
NI1887   NI        0.524162    0.640840    0.369698     0.004307
NI1888   NI        0.555743    0.610153    0.372111     0.004307
NI1889   NI        0.558090    0.644094    0.338925     0.004307
CU1890   CU        0.589826    0.612236    0.339493     0.006663
CU1891   CU        0.589314    0.638847    0.375026     0.006663
NI1892   NI        0.622707    0.610610    0.373881     0.004307
NI1893   NI        0.623501    0.639746    0.342769     0.004307
CU1894   CU        0.655488    0.608843    0.341373     0.006663
NI1895   NI        0.657374    0.640786    0.373446     0.004307
NI1896   NI        0.688352    0.611217    0.374196     0.004307
NI1897   NI        0.702932    0.648798    0.332023     0.004307
NI1898   NI        0.735550    0.620037    0.332211     0.004307
NI1899   NI        0.738106    0.649059    0.369226     0.004307
CU1900   CU        0.772660    0.618156    0.368281     0.006663
CU1901   CU        0.767990    0.645819    0.335073     0.006663
NI1902   NI        0.801391    0.616657    0.334211     0.004307
NI1903   NI        0.806234    0.644158    0.373027     0.004307
NI1904   NI        0.837939    0.614831    0.367855     0.004307
NI1905   NI        0.832923    0.644402    0.335679     0.004307
CU1906   CU        0.114765    0.674385    0.333361     0.006663
NI1907   NI        0.113887    0.702734    0.369125     0.004307
NI1908   NI        0.144314    0.673362    0.370520     0.004307
NI1909   NI        0.145957    0.704047    0.336083     0.004307
NI1910   NI        0.178059    0.675392    0.334435     0.004307
NI1911   NI        0.177491    0.706153    0.370386     0.004307
CU1912   CU        0.209168    0.676719    0.367281     0.006663
CU1913   CU        0.212195    0.704870    0.333375     0.006663
NI1914   NI        0.245422    0.675254    0.332628     0.004307
NI1915   NI        0.245958    0.706715    0.365254     0.004307
CU1916   CU        0.280555    0.675971    0.363748     0.006663
CU1917   CU        0.279133    0.706502    0.332635     0.006663
NI1918   NI        0.314941    0.678091    0.332415     0.004307
NI1919   NI        0.313850    0.706879    0.365315     0.004307
CU1920   CU        0.348074    0.678333    0.364490     0.006663
CU1921   CU        0.350735    0.708093    0.330743     0.006663
NI1922   NI        0.382082    0.682045    0.332998     0.004307
NI1923   NI        0.382275    0.710759    0.364652     0.004307
NI1924   NI        0.424948    0.665365    0.374826     0.004307
NI1925   NI        0.417611    0.710401    0.331981     0.004307
NI1926   NI        0.455932    0.668289    0.342063     0.004307
NI1927   NI        0.457533    0.695123    0.375579     0.004307
NI1928   NI        0.491691    0.668690    0.371723     0.004307
NI1929   NI        0.490668    0.698707    0.341570     0.004307
NI1930   NI        0.522050    0.670386    0.338759     0.004307
NI1931   NI        0.522696    0.699580    0.373619     0.004307
CU1932   CU        0.557712    0.670577    0.376061     0.006663
CU1933   CU        0.562169    0.713300    0.332576     0.006663
NI1934   NI        0.593489    0.669160    0.346410     0.004307
NI1935   NI        0.599039    0.706569    0.362460     0.004307
NI1936   NI        0.635408    0.678955    0.368041     0.004307
NI1937   NI        0.632436    0.709990    0.331075     0.004307
CU1938   CU        0.665003    0.680928    0.331948     0.006663
CU1939   CU        0.662984    0.709595    0.365539     0.006663
NI1940   NI        0.682389    0.673012    0.370994     0.004307
NI1941   NI        0.698048    0.707636    0.333992     0.004307
CU1942   CU        0.735761    0.675255    0.336013     0.006663
NI1943   NI        0.734306    0.706949    0.369892     0.004307
CU1944   CU        0.770942    0.674310    0.370079     0.006663
NI1945   NI        0.766088    0.703200    0.337680     0.004307
NI1946   NI        0.803840    0.674552    0.335399     0.004307
NI1947   NI        0.800925    0.704225    0.368157     0.004307
CU1948   CU        0.141921    0.732545    0.367161     0.006663
NI1949   NI        0.179546    0.734703    0.334984     0.004307
NI1950   NI        0.213152    0.735589    0.368825     0.004307
NI1951   NI        0.214771    0.761349    0.332846     0.004307
NI1952   NI        0.247373    0.734614    0.332772     0.004307
NI1953   NI        0.245376    0.765608    0.367102     0.004307
NI1954   NI        0.278358    0.736341    0.367039     0.004307
NI1955   NI        0.279410    0.764129    0.332439     0.004307
NI1956   NI        0.315054    0.736565    0.331868     0.004307
CU1957   CU        0.313217    0.765418    0.366718     0.006663
NI1958   NI        0.349438    0.738514    0.365046     0.004307
NI1959   NI        0.348133    0.763842    0.332019     0.004307
NI1960   NI        0.382900    0.737564    0.329972     0.004307
NI1961   NI        0.386419    0.765491    0.364540     0.004307
NI1962   NI        0.417870    0.739127    0.364126     0.004307
NI1963   NI        0.419778    0.765410    0.328595     0.004307
NI1964   NI        0.455704    0.740465    0.333750     0.004307
NI1965   NI        0.453908    0.766341    0.368132     0.004307
NI1966   NI        0.492222    0.738692    0.365758     0.004307
CU1967   CU        0.492609    0.765640    0.333222     0.006663
NI1968   NI        0.528905    0.740789    0.327935     0.004307
NI1969   NI        0.528768    0.764573    0.366438     0.004307
NI1970   NI        0.563258    0.740302    0.364193     0.004307
CU1971   CU        0.562589    0.768618    0.331597     0.006663
NI1972   NI        0.595852    0.737394    0.330346     0.004307
NI1973   NI        0.596166    0.765319    0.367378     0.004307
NI1974   NI        0.631317    0.739288    0.365897     0.004307
NI1975   NI        0.632591    0.766515    0.330912     0.004307
NI1976   NI        0.666111    0.736862    0.331910     0.004307
CU1977   CU        0.666001    0.764217    0.369953     0.006663
NI1978   NI        0.697598    0.734614    0.368714     0.004307
NI1979   NI        0.699695    0.762564    0.335665     0.004307
NI1980   NI        0.736923    0.732737    0.335756     0.004307
NI1981   NI        0.768457    0.733465    0.368602     0.004307
NI1982   NI        0.279205    0.793371    0.368288     0.004307
NI1983   NI        0.313086    0.792053    0.331325     0.004307
NI1984   NI        0.350863    0.793777    0.369776     0.004307
NI1985   NI        0.386281    0.793135    0.328792     0.004307
NI1986   NI        0.384703    0.864468    0.404876     0.004307
CU1987   CU        0.420864    0.793272    0.362095     0.006663
NI1988   NI        0.422102    0.819696    0.329864     0.004307
NI1989   NI        0.455865    0.792090    0.326824     0.004307
NI1990   NI        0.457704    0.819671    0.362601     0.004307
NI1991   NI        0.489800    0.792972    0.366385     0.004307
NI1992   NI        0.489682    0.820462    0.330459     0.004307
NI1993   NI        0.525634    0.794076    0.331412     0.004307
NI1994   NI        0.523669    0.819617    0.364669     0.004307
NI1995   NI        0.558378    0.793246    0.366191     0.004307
NI1996   NI        0.600776    0.794292    0.334003     0.004307
NI1997   NI        0.632287    0.791956    0.366986     0.004307
NI1998   NI        0.317007    0.041807    0.437528     0.004307
NI1999   NI        0.349730    0.039901    0.401780     0.004307
NI2000   NI        0.384224    0.039858    0.434943     0.004307
NI2001   NI        0.422013    0.040136    0.399759     0.004307
NI2002   NI        0.455144    0.042321    0.433105     0.004307
NI2003   NI        0.490443    0.042795    0.398274     0.004307
NI2004   NI        0.527183    0.039791    0.438884     0.004307
NI2005   NI        0.559733    0.039059    0.400520     0.004307
NI2006   NI        0.596220    0.000588    0.404636     0.004307
NI2007   NI        0.177700    0.096099    0.437844     0.004307
NI2008   NI        0.212598    0.095016    0.403514     0.004307
NI2009   NI        0.251308    0.066987    0.401628     0.004307
NI2010   NI        0.248520    0.093724    0.434606     0.004307
NI2011   NI        0.283985    0.067695    0.438004     0.004307
NI2012   NI        0.282583    0.096395    0.400349     0.004307
NI2013   NI        0.315621    0.066356    0.402342     0.004307
NI2014   NI        0.317220    0.097331    0.437515     0.004307
NI2015   NI        0.351024    0.067999    0.435718     0.004307
CU2016   CU        0.348626    0.096124    0.402145     0.006663
NI2017   NI        0.384345    0.066916    0.402190     0.004307
CU2018   CU        0.384737    0.094259    0.436024     0.006663
NI2019   NI        0.419366    0.066399    0.434302     0.004307
NI2020   NI        0.420699    0.094231    0.400965     0.004307
CU2021   CU        0.455098    0.066436    0.399165     0.006663
NI2022   NI        0.458269    0.093944    0.434750     0.004307
CU2023   CU        0.491834    0.066561    0.436503     0.006663
NI2024   NI        0.491753    0.092316    0.401566     0.004307
NI2025   NI        0.526174    0.066494    0.399028     0.004307
NI2026   NI        0.528492    0.093786    0.437554     0.004307
NI2027   NI        0.561491    0.068147    0.436846     0.004307
NI2028   NI        0.564223    0.096141    0.401185     0.004307
NI2029   NI        0.595552    0.067904    0.398235     0.004307
NI2030   NI        0.597161    0.094796    0.435903     0.004307
NI2031   NI        0.632277    0.069315    0.434685     0.004307
NI2032   NI        0.631285    0.094195    0.399971     0.004307
NI2033   NI        0.671948    0.068514    0.399021     0.004307
NI2034   NI        0.668180    0.093489    0.436027     0.004307
NI2035   NI        0.701664    0.097474    0.401913     0.004307
NI2036   NI        0.735109    0.097722    0.435457     0.004307
NI2037   NI        0.110610    0.154758    0.440011     0.004307
NI2038   NI        0.144535    0.127712    0.435756     0.004307
CU2039   CU        0.142237    0.155220    0.404540     0.006663
NI2040   NI        0.180022    0.125287    0.403314     0.004307
NI2041   NI        0.176972    0.153514    0.438021     0.004307
NI2042   NI        0.212042    0.121623    0.439748     0.004307
NI2043   NI        0.211014    0.151624    0.403996     0.004307
NI2044   NI        0.246855    0.123606    0.401920     0.004307
NI2045   NI        0.243090    0.149109    0.437288     0.004307
CU2046   CU        0.278920    0.124099    0.438289     0.006663
NI2047   NI        0.281263    0.151123    0.399574     0.004307
NI2048   NI        0.314907    0.123556    0.400451     0.004307
NI2049   NI        0.321151    0.166841    0.441794     0.004307
NI2050   NI        0.353641    0.122413    0.434465     0.004307
NI2051   NI        0.350892    0.147572    0.400680     0.004307
NI2052   NI        0.385460    0.121108    0.400818     0.004307
CU2053   CU        0.389510    0.148277    0.432809     0.006663
NI2054   NI        0.421132    0.120072    0.436310     0.004307
NI2055   NI        0.425339    0.165747    0.407467     0.004307
NI2056   NI        0.458113    0.119085    0.401021     0.004307
NI2057   NI        0.456517    0.165610    0.439469     0.004307
CU2058   CU        0.495577    0.122320    0.436040     0.006663
NI2059   NI        0.492785    0.169340    0.408835     0.004307
NI2060   NI        0.528549    0.120871    0.403331     0.004307
NI2061   NI        0.529654    0.149036    0.434702     0.004307
NI2062   NI        0.563778    0.123076    0.436734     0.004307
CU2063   CU        0.564330    0.148373    0.402139     0.006663
CU2064   CU        0.599324    0.121402    0.400453     0.006663
NI2065   NI        0.599325    0.151034    0.434933     0.004307
CU2066   CU        0.632339    0.122095    0.434712     0.006663
NI2067   NI        0.633634    0.153560    0.400188     0.004307
NI2068   NI        0.667580    0.123388    0.399706     0.004307
NI2069   NI        0.667851    0.151212    0.434121     0.004307
NI2070   NI        0.702718    0.125053    0.436576     0.004307
NI2071   NI        0.701808    0.153241    0.399324     0.004307
NI2072   NI        0.734846    0.124576    0.400141     0.004307
NI2073   NI        0.736164    0.154660    0.435288     0.004307
NI2074   NI        0.770653    0.126313    0.439704     0.004307
CU2075   CU        0.769536    0.154123    0.402954     0.006663
NI2076   NI        0.800103    0.156044    0.437304     0.004307
NI2077   NI        0.079728    0.183857    0.438000     0.004307
NI2078   NI        0.076952    0.214561    0.407585     0.004307
NI2079   NI        0.110368    0.186393    0.404501     0.004307
NI2080   NI        0.110227    0.215264    0.438938     0.004307
NI2081   NI        0.141063    0.183548    0.438186     0.004307
NI2082   NI        0.140408    0.212908    0.403821     0.004307
NI2083   NI        0.176387    0.182131    0.404639     0.004307
NI2084   NI        0.174038    0.211497    0.436749     0.004307
NI2085   NI        0.209564    0.181558    0.438492     0.004307
NI2086   NI        0.207114    0.210908    0.401142     0.004307
NI2087   NI        0.252261    0.198627    0.412122     0.004307
NI2088   NI        0.257388    0.228009    0.442240     0.004307
NI2089   NI        0.289531    0.197338    0.441205     0.004307
NI2090   NI        0.287791    0.224430    0.408471     0.004307
NI2091   NI        0.323019    0.196857    0.410447     0.004307
NI2092   NI        0.320988    0.226488    0.440342     0.004307
NI2093   NI        0.355200    0.192765    0.441200     0.004307
NI2094   NI        0.354478    0.226756    0.407160     0.004307
NI2095   NI        0.382096    0.176532    0.398375     0.004307
CU2096   CU        0.387038    0.224380    0.439416     0.006663
CU2097   CU        0.424903    0.194946    0.440226     0.006663
CU2098   CU        0.424674    0.224531    0.403150     0.006663
NI2099   NI        0.457615    0.194529    0.407634     0.004307
CU2100   CU        0.455763    0.224689    0.438793     0.006663
CU2101   CU        0.490379    0.195804    0.439780     0.006663
CU2102   CU        0.490756    0.222773    0.404451     0.006663
NI2103   NI        0.525502    0.193882    0.405312     0.004307
CU2104   CU        0.523021    0.222369    0.437800     0.006663
NI2105   NI        0.563754    0.179195    0.437219     0.004307
CU2106   CU        0.555298    0.223996    0.399490     0.006663
CU2107   CU        0.601434    0.178948    0.401789     0.006663
CU2108   CU        0.603165    0.208822    0.437134     0.006663
NI2109   NI        0.634222    0.179836    0.435444     0.004307
NI2110   NI        0.638326    0.211617    0.403586     0.004307
NI2111   NI        0.668813    0.181715    0.401947     0.004307
NI2112   NI        0.668613    0.212020    0.439915     0.004307
NI2113   NI        0.700258    0.181854    0.434204     0.004307
NI2114   NI        0.704612    0.210010    0.402162     0.004307
NI2115   NI        0.738764    0.183235    0.402660     0.004307
NI2116   NI        0.737282    0.212144    0.434578     0.004307
NI2117   NI        0.770130    0.183056    0.437996     0.004307
NI2118   NI        0.769193    0.213411    0.400690     0.004307
CU2119   CU        0.803093    0.183928    0.401597     0.006663
NI2120   NI        0.802336    0.213235    0.437563     0.004307
NI2121   NI        0.834481    0.184280    0.434932     0.004307
NI2122   NI        0.834408    0.218608    0.400280     0.004307
NI2123   NI        0.045449    0.246222    0.404864     0.004307
NI2124   NI        0.044657    0.274167    0.442883     0.004307
NI2125   NI        0.077370    0.244727    0.440876     0.004307
NI2126   NI        0.077131    0.274154    0.401477     0.004307
CU2127   CU        0.107244    0.242525    0.402307     0.006663
NI2128   NI        0.108633    0.272855    0.438114     0.004307
NI2129   NI        0.141191    0.241748    0.437185     0.004307
NI2130   NI        0.139382    0.270136    0.403795     0.004307
NI2131   NI        0.171223    0.240965    0.404970     0.004307
NI2132   NI        0.171271    0.272658    0.436771     0.004307
NI2133   NI        0.222999    0.254438    0.439596     0.004307
NI2134   NI        0.224684    0.283835    0.405317     0.004307
CU2135   CU        0.258004    0.254136    0.408523     0.006663
NI2136   NI        0.254751    0.282866    0.441678     0.004307
CU2137   CU        0.287836    0.256565    0.438959     0.006663
CU2138   CU        0.288557    0.283560    0.405382     0.006663
NI2139   NI        0.321323    0.254779    0.406396     0.004307
CU2140   CU        0.323039    0.283327    0.440690     0.006663
CU2141   CU        0.355079    0.253138    0.439852     0.006663
CU2142   CU        0.355173    0.283070    0.407338     0.006663
CU2143   CU        0.387728    0.252900    0.404812     0.006663
CU2144   CU        0.390786    0.282776    0.439114     0.006663
CU2145   CU        0.422114    0.252764    0.434935     0.006663
CU2146   CU        0.422985    0.283734    0.405640     0.006663
CU2147   CU        0.457282    0.253629    0.404363     0.006663
CU2148   CU        0.455709    0.280273    0.437645     0.006663
CU2149   CU        0.492448    0.251270    0.439280     0.006663
CU2150   CU        0.490961    0.282180    0.406143     0.006663
CU2151   CU        0.521726    0.251814    0.404773     0.006663
NI2152   NI        0.523110    0.280093    0.438059     0.004307
CU2153   CU        0.556917    0.253421    0.438410     0.006663
CU2154   CU        0.554779    0.282146    0.406099     0.006663
CU2155   CU        0.585956    0.252144    0.405441     0.006663
NI2156   NI        0.588266    0.283245    0.439347     0.004307
NI2157   NI        0.635248    0.240276    0.439916     0.004307
NI2158   NI        0.620275    0.284484    0.406120     0.004307
NI2159   NI        0.652928    0.253684    0.402488     0.004307
CU2160   CU        0.649990    0.281730    0.439192     0.006663
NI2161   NI        0.704872    0.239912    0.437869     0.004307
CU2162   CU        0.705789    0.271003    0.404601     0.006663
CU2163   CU        0.738891    0.242892    0.401373     0.006663
CU2164   CU        0.739030    0.273711    0.435432     0.006663
NI2165   NI        0.769865    0.242118    0.436180     0.004307
CU2166   CU        0.770964    0.274755    0.402457     0.006663
NI2167   NI        0.800931    0.244800    0.400601     0.004307
NI2168   NI        0.800721    0.273128    0.436469     0.004307
NI2169   NI        0.833271    0.243507    0.438594     0.004307
NI2170   NI        0.835230    0.274219    0.402501     0.004307
CU2171   CU        0.867810    0.246433    0.404192     0.006663
CU2172   CU        0.863582    0.274505    0.438109     0.006663
NI2173   NI        0.002675    0.294207    0.468237     0.004307
CU2174   CU        0.014804    0.336895    0.401595     0.006663
NI2175   NI        0.045933    0.303619    0.404539     0.004307
CU2176   CU        0.046081    0.335580    0.435630     0.006663
NI2177   NI        0.077113    0.302294    0.438403     0.004307
NI2178   NI        0.079319    0.334100    0.401656     0.004307
NI2179   NI        0.106818    0.303558    0.401761     0.004307
CU2180   CU        0.108266    0.338879    0.435357     0.006663
NI2181   NI        0.137853    0.307289    0.439159     0.004307
NI2182   NI        0.150120    0.342031    0.412164     0.004307
NI2183   NI        0.168759    0.305801    0.404678     0.004307
NI2184   NI        0.188243    0.341119    0.440627     0.004307
CU2185   CU        0.223492    0.313312    0.442884     0.006663
CU2186   CU        0.221385    0.342754    0.405136     0.006663
CU2187   CU        0.253557    0.313857    0.405761     0.006663
CU2188   CU        0.255554    0.342193    0.441612     0.006663
CU2189   CU        0.291014    0.313319    0.437792     0.006663
NI2190   NI        0.287134    0.342401    0.405429     0.004307
CU2191   CU        0.323126    0.312441    0.406756     0.006663
CU2192   CU        0.323311    0.342421    0.438579     0.006663
CU2193   CU        0.356802    0.311182    0.440594     0.006663
CU2194   CU        0.356804    0.342782    0.405431     0.006663
NI2195   NI        0.389998    0.313240    0.406890     0.004307
CU2196   CU        0.391859    0.342278    0.439186     0.006663
CU2197   CU        0.423666    0.310954    0.439904     0.006663
CU2198   CU        0.424512    0.341637    0.406467     0.006663
CU2199   CU        0.457320    0.311048    0.407167     0.006663
CU2200   CU        0.455184    0.340389    0.440502     0.006663
CU2201   CU        0.490498    0.311454    0.439550     0.006663
CU2202   CU        0.488334    0.341655    0.408540     0.006663
NI2203   NI        0.523688    0.312337    0.406242     0.004307
CU2204   CU        0.523206    0.341021    0.439173     0.006663
CU2205   CU        0.555151    0.312584    0.438656     0.006663
CU2206   CU        0.555938    0.342557    0.404611     0.006663
CU2207   CU        0.586981    0.314233    0.405205     0.006663
CU2208   CU        0.587665    0.341325    0.439368     0.006663
CU2209   CU        0.622176    0.313270    0.438101     0.006663
CU2210   CU        0.623129    0.342494    0.406192     0.006663
NI2211   NI        0.653887    0.315098    0.405752     0.004307
CU2212   CU        0.656767    0.341306    0.441241     0.006663
NI2213   NI        0.707675    0.304311    0.433327     0.004307
CU2214   CU        0.709383    0.334041    0.399381     0.006663
NI2215   NI        0.740033    0.304553    0.400582     0.004307
CU2216   CU        0.736092    0.337050    0.434300     0.006663
NI2217   NI        0.768905    0.304903    0.437239     0.004307
NI2218   NI        0.771508    0.336017    0.401822     0.004307
NI2219   NI        0.802157    0.305607    0.402016     0.004307
CU2220   CU        0.804385    0.335077    0.435547     0.006663
CU2221   CU        0.833813    0.305135    0.438272     0.006663
NI2222   NI        0.834092    0.335029    0.403504     0.004307
NI2223   NI        0.866574    0.305605    0.403737     0.004307
CU2224   CU        0.866104    0.335989    0.437835     0.006663
NI2225   NI        0.899456    0.308708    0.438165     0.004307
NI2226   NI        0.898874    0.338629    0.401235     0.004307
NI2227   NI        0.012226    0.365657    0.438109     0.004307
NI2228   NI        0.012288    0.397497    0.400141     0.004307
NI2229   NI        0.042079    0.366417    0.402164     0.004307
NI2230   NI        0.041704    0.397137    0.437023     0.004307
CU2231   CU        0.074591    0.366828    0.438920     0.006663
NI2232   NI        0.074032    0.399422    0.404006     0.004307
NI2233   NI        0.104913    0.368231    0.399421     0.004307
NI2234   NI        0.102588    0.398918    0.441899     0.004307
NI2235   NI        0.155936    0.371116    0.442330     0.004307
NI2236   NI        0.155614    0.400856    0.408459     0.004307
NI2237   NI        0.186191    0.371142    0.408155     0.004307
CU2238   CU        0.188710    0.401568    0.440741     0.006663
CU2239   CU        0.220349    0.370114    0.440164     0.006663
CU2240   CU        0.222550    0.400349    0.407442     0.006663
CU2241   CU        0.255518    0.369844    0.405573     0.006663
CU2242   CU        0.255510    0.399836    0.438117     0.006663
CU2243   CU        0.290329    0.372049    0.441192     0.006663
CU2244   CU        0.290755    0.401063    0.404763     0.006663
CU2245   CU        0.322512    0.369925    0.406128     0.006663
CU2246   CU        0.323755    0.398937    0.439116     0.006663
CU2247   CU        0.355826    0.370055    0.439111     0.006663
CU2248   CU        0.357122    0.400619    0.405829     0.006663
CU2249   CU        0.391147    0.371385    0.407231     0.006663
CU2250   CU        0.389723    0.401217    0.439265     0.006663
CU2251   CU        0.421851    0.372803    0.439827     0.006663
CU2252   CU        0.425622    0.399967    0.406642     0.006663
CU2253   CU        0.457219    0.370306    0.408698     0.006663
CU2254   CU        0.457695    0.402677    0.439589     0.006663
CU2255   CU        0.489974    0.373435    0.441238     0.006663
CU2256   CU        0.491423    0.397734    0.405140     0.006663
CU2257   CU        0.523325    0.369490    0.405523     0.006663
CU2258   CU        0.525621    0.399492    0.440523     0.006663
CU2259   CU        0.557180    0.371429    0.441668     0.006663
CU2260   CU        0.557709    0.399576    0.407510     0.006663
CU2261   CU        0.589363    0.371900    0.406814     0.006663
CU2262   CU        0.590165    0.399633    0.443291     0.006663
NI2263   NI        0.623471    0.368736    0.440014     0.004307
CU2264   CU        0.623158    0.399170    0.408999     0.006663
CU2265   CU        0.657457    0.370767    0.406763     0.006663
CU2266   CU        0.655721    0.398890    0.441479     0.006663
CU2267   CU        0.690564    0.371089    0.441026     0.006663
CU2268   CU        0.687531    0.399675    0.408982     0.006663
NI2269   NI        0.721362    0.370705    0.409231     0.004307
NI2270   NI        0.721986    0.401010    0.441053     0.004307
NI2271   NI        0.773735    0.364870    0.437224     0.004307
NI2272   NI        0.772638    0.398321    0.400523     0.004307
NI2273   NI        0.806224    0.369207    0.401941     0.004307
CU2274   CU        0.802901    0.397184    0.435987     0.006663
CU2275   CU        0.835035    0.366807    0.437926     0.006663
CU2276   CU        0.836348    0.397960    0.403333     0.006663
NI2277   NI        0.866925    0.367739    0.400803     0.004307
NI2278   NI        0.866905    0.397886    0.435949     0.004307
NI2279   NI        0.896389    0.365401    0.437215     0.004307
NI2280   NI        0.895740    0.401192    0.402251     0.004307
CU2281   CU        0.011744    0.426814    0.439783     0.006663
NI2282   NI        0.013076    0.458739    0.403655     0.004307
NI2283   NI        0.042375    0.428388    0.402904     0.004307
NI2284   NI        0.039944    0.457753    0.438287     0.004307
NI2285   NI        0.071623    0.427140    0.437983     0.004307
NI2286   NI        0.073289    0.459901    0.404508     0.004307
NI2287   NI        0.103314    0.431337    0.404318     0.004307
NI2288   NI        0.102759    0.459796    0.437426     0.004307
NI2289   NI        0.156346    0.430893    0.441132     0.004307
NI2290   NI        0.156213    0.460646    0.411502     0.004307
CU2291   CU        0.190181    0.429523    0.408256     0.006663
NI2292   NI        0.189966    0.458459    0.441114     0.004307
NI2293   NI        0.222632    0.430207    0.441147     0.004307
CU2294   CU        0.224298    0.458743    0.408600     0.006663
CU2295   CU        0.256427    0.429780    0.406503     0.006663
CU2296   CU        0.255627    0.460373    0.442617     0.006663
CU2297   CU        0.288566    0.427381    0.439129     0.006663
CU2298   CU        0.290415    0.459084    0.408633     0.006663
NI2299   NI        0.323445    0.430531    0.406032     0.004307
CU2300   CU        0.323116    0.460884    0.439310     0.006663
CU2301   CU        0.356131    0.430786    0.437899     0.006663
CU2302   CU        0.355736    0.458622    0.406237     0.006663
CU2303   CU        0.390874    0.430937    0.407952     0.006663
CU2304   CU        0.390129    0.459807    0.439845     0.006663
CU2305   CU        0.423689    0.431004    0.439324     0.006663
CU2306   CU        0.424927    0.460047    0.404783     0.006663
CU2307   CU        0.459002    0.429728    0.406152     0.006663
CU2308   CU        0.459449    0.459663    0.439014     0.006663
CU2309   CU        0.492381    0.428081    0.438073     0.006663
CU2310   CU        0.492582    0.458978    0.404455     0.006663
CU2311   CU        0.523309    0.427756    0.405809     0.006663
NI2312   NI        0.522571    0.459185    0.440820     0.004307
CU2313   CU        0.559718    0.429665    0.442616     0.006663
CU2314   CU        0.556344    0.457667    0.409833     0.006663
CU2315   CU        0.590183    0.427433    0.406810     0.006663
CU2316   CU        0.591863    0.461145    0.439871     0.006663
CU2317   CU        0.621860    0.428463    0.442564     0.006663
CU2318   CU        0.625538    0.460365    0.406751     0.006663
CU2319   CU        0.656465    0.429127    0.408903     0.006663
CU2320   CU        0.656421    0.461039    0.442007     0.006663
NI2321   NI        0.692517    0.428669    0.440959     0.004307
CU2322   CU        0.687469    0.460639    0.407857     0.006663
NI2323   NI        0.741527    0.428543    0.400873     0.004307
CU2324   CU        0.720177    0.460014    0.440418     0.006663
NI2325   NI        0.774750    0.429820    0.436976     0.004307
NI2326   NI        0.776478    0.459856    0.402654     0.004307
NI2327   NI        0.806499    0.427655    0.400590     0.004307
CU2328   CU        0.807276    0.458363    0.435043     0.006663
NI2329   NI        0.836329    0.428220    0.437688     0.004307
CU2330   CU        0.834314    0.459936    0.399554     0.006663
NI2331   NI        0.866798    0.429769    0.401071     0.004307
NI2332   NI        0.867740    0.458873    0.436566     0.004307
NI2333   NI        0.897998    0.431680    0.436937     0.004307
NI2334   NI        0.898324    0.461014    0.402420     0.004307
NI2335   NI        0.006643    0.486082    0.440701     0.004307
NI2336   NI        0.018236    0.524940    0.399913     0.004307
CU2337   CU        0.040064    0.487918    0.405913     0.006663
NI2338   NI        0.036935    0.518862    0.440280     0.004307
NI2339   NI        0.069632    0.489905    0.439860     0.004307
NI2340   NI        0.067053    0.519915    0.406626     0.004307
NI2341   NI        0.122469    0.490291    0.412289     0.004307
CU2342   CU        0.123713    0.519997    0.443256     0.006663
CU2343   CU        0.155341    0.489811    0.442510     0.006663
NI2344   NI        0.157160    0.516266    0.410519     0.004307
NI2345   NI        0.191231    0.487237    0.409553     0.004307
NI2346   NI        0.188343    0.519424    0.442706     0.004307
CU2347   CU        0.223103    0.489060    0.441301     0.006663
CU2348   CU        0.223766    0.517179    0.408225     0.006663
CU2349   CU        0.255692    0.488970    0.406283     0.006663
CU2350   CU        0.256301    0.517673    0.441463     0.006663
CU2351   CU        0.291351    0.489051    0.440778     0.006663
CU2352   CU        0.287314    0.518306    0.407960     0.006663
CU2353   CU        0.322816    0.489544    0.405348     0.006663
CU2354   CU        0.322194    0.518109    0.440730     0.006663
CU2355   CU        0.355161    0.489298    0.439565     0.006663
CU2356   CU        0.358127    0.518881    0.408652     0.006663
CU2357   CU        0.390750    0.488673    0.407380     0.006663
CU2358   CU        0.390233    0.519216    0.439804     0.006663
CU2359   CU        0.424748    0.489658    0.439576     0.006663
CU2360   CU        0.424409    0.519940    0.405502     0.006663
CU2361   CU        0.455565    0.490322    0.405269     0.006663
CU2362   CU        0.456136    0.518382    0.438940     0.006663
CU2363   CU        0.491089    0.489780    0.437832     0.006663
CU2364   CU        0.487033    0.519361    0.404728     0.006663
CU2365   CU        0.522849    0.490199    0.404737     0.006663
CU2366   CU        0.523081    0.518727    0.440593     0.006663
CU2367   CU        0.555354    0.488640    0.440010     0.006663
NI2368   NI        0.555303    0.519182    0.408261     0.004307
CU2369   CU        0.591451    0.489963    0.407850     0.006663
CU2370   CU        0.590993    0.520583    0.441607     0.006663
CU2371   CU        0.624594    0.490215    0.440161     0.006663
CU2372   CU        0.625319    0.518140    0.407526     0.006663
NI2373   NI        0.657550    0.492182    0.407321     0.004307
NI2374   NI        0.656942    0.521311    0.440423     0.004307
CU2375   CU        0.689101    0.490228    0.440662     0.006663
CU2376   CU        0.688754    0.520712    0.406612     0.006663
NI2377   NI        0.718085    0.488192    0.405294     0.004307
CU2378   CU        0.721091    0.520574    0.438660     0.006663
CU2379   CU        0.777962    0.490254    0.434624     0.006663
NI2380   NI        0.778479    0.522285    0.402440     0.004307
CU2381   CU        0.805969    0.491303    0.400814     0.006663
NI2382   NI        0.806613    0.520378    0.437812     0.004307
NI2383   NI        0.838220    0.490105    0.437004     0.004307
NI2384   NI        0.834191    0.523441    0.401848     0.004307
NI2385   NI        0.867101    0.492034    0.402066     0.004307
NI2386   NI        0.866006    0.522121    0.437104     0.004307
NI2387   NI        0.895712    0.493022    0.435849     0.004307
NI2388   NI        0.898184    0.521594    0.405110     0.004307
NI2389   NI        0.015538    0.553146    0.434339     0.004307
NI2390   NI        0.047609    0.555170    0.401713     0.004307
NI2391   NI        0.043092    0.585150    0.437146     0.004307
NI2392   NI        0.076223    0.561007    0.436135     0.004307
CU2393   CU        0.077585    0.588192    0.402381     0.006663
NI2394   NI        0.107900    0.559031    0.400248     0.004307
NI2395   NI        0.107829    0.587924    0.437691     0.004307
CU2396   CU        0.157222    0.550132    0.442947     0.006663
NI2397   NI        0.139653    0.587664    0.400483     0.004307
NI2398   NI        0.189451    0.546829    0.409984     0.004307
NI2399   NI        0.180102    0.587777    0.436955     0.004307
NI2400   NI        0.220747    0.547122    0.442193     0.004307
NI2401   NI        0.212557    0.587379    0.400149     0.004307
NI2402   NI        0.255671    0.545539    0.408576     0.004307
NI2403   NI        0.245395    0.587080    0.431610     0.004307
CU2404   CU        0.289133    0.547028    0.439969     0.006663
NI2405   NI        0.285957    0.574597    0.409008     0.004307
CU2406   CU        0.323080    0.547391    0.407650     0.006663
CU2407   CU        0.323471    0.576959    0.441652     0.006663
CU2408   CU        0.356961    0.550407    0.439982     0.006663
CU2409   CU        0.357130    0.577556    0.406739     0.006663
CU2410   CU        0.389121    0.549010    0.405287     0.006663
CU2411   CU        0.389976    0.579764    0.438151     0.006663
CU2412   CU        0.422959    0.549054    0.441677     0.006663
CU2413   CU        0.421668    0.578768    0.404090     0.006663
CU2414   CU        0.454728    0.548851    0.406920     0.006663
CU2415   CU        0.456106    0.577265    0.436330     0.006663
CU2416   CU        0.489270    0.550764    0.439795     0.006663
CU2417   CU        0.490883    0.578838    0.403787     0.006663
CU2418   CU        0.521859    0.548610    0.406224     0.006663
CU2419   CU        0.524473    0.579520    0.438560     0.006663
NI2420   NI        0.556949    0.549902    0.438736     0.004307
CU2421   CU        0.557076    0.576936    0.406319     0.006663
NI2422   NI        0.590256    0.550628    0.404829     0.004307
NI2423   NI        0.592317    0.579675    0.438663     0.004307
CU2424   CU        0.623868    0.548979    0.441392     0.006663
CU2425   CU        0.623934    0.579261    0.403346     0.006663
NI2426   NI        0.654932    0.550520    0.405815     0.004307
NI2427   NI        0.656297    0.581301    0.436886     0.004307
NI2428   NI        0.687266    0.550743    0.437637     0.004307
CU2429   CU        0.690273    0.580281    0.405151     0.006663
NI2430   NI        0.723429    0.547823    0.405803     0.004307
NI2431   NI        0.720437    0.579484    0.438712     0.004307
NI2432   NI        0.756190    0.552213    0.440527     0.004307
NI2433   NI        0.774322    0.586707    0.403814     0.004307
NI2434   NI        0.803271    0.554767    0.402415     0.004307
NI2435   NI        0.806683    0.585710    0.434377     0.004307
CU2436   CU        0.838377    0.553294    0.435564     0.006663
CU2437   CU        0.836070    0.582108    0.399626     0.006663
NI2438   NI        0.866571    0.552343    0.401899     0.004307
NI2439   NI        0.865398    0.585754    0.438357     0.004307
NI2440   NI        0.899720    0.553633    0.434871     0.004307
NI2441   NI        0.044140    0.617221    0.402805     0.004307
CU2442   CU        0.074589    0.618164    0.439051     0.006663
NI2443   NI        0.076806    0.647817    0.404242     0.004307
NI2444   NI        0.110163    0.617165    0.404139     0.004307
NI2445   NI        0.112914    0.645528    0.437654     0.004307
NI2446   NI        0.144122    0.615340    0.436343     0.004307
NI2447   NI        0.145765    0.645491    0.403843     0.004307
NI2448   NI        0.176066    0.615270    0.400671     0.004307
CU2449   CU        0.178654    0.648113    0.440068     0.006663
CU2450   CU        0.211297    0.617333    0.433954     0.006663
CU2451   CU        0.210038    0.645607    0.400285     0.006663
NI2452   NI        0.245337    0.616668    0.401632     0.004307
NI2453   NI        0.255074    0.634484    0.440956     0.004307
NI2454   NI        0.291838    0.606031    0.442004     0.004307
NI2455   NI        0.287485    0.635446    0.409574     0.004307
CU2456   CU        0.321646    0.609661    0.405970     0.006663
NI2457   NI        0.322521    0.635080    0.442267     0.004307
NI2458   NI        0.357686    0.608061    0.438750     0.004307
NI2459   NI        0.357618    0.636103    0.408116     0.004307
CU2460   CU        0.390639    0.606432    0.406632     0.006663
CU2461   CU        0.391418    0.637376    0.440044     0.006663
CU2462   CU        0.425453    0.606514    0.438267     0.006663
CU2463   CU        0.425177    0.638506    0.407493     0.006663
CU2464   CU        0.460036    0.610089    0.406032     0.006663
CU2465   CU        0.459164    0.637921    0.440017     0.006663
CU2466   CU        0.490476    0.610188    0.438537     0.006663
CU2467   CU        0.491433    0.640021    0.404710     0.006663
CU2468   CU        0.522997    0.608106    0.406822     0.006663
NI2469   NI        0.521333    0.639168    0.439749     0.004307
CU2470   CU        0.557275    0.610370    0.436791     0.006663
CU2471   CU        0.554288    0.636849    0.405284     0.006663
CU2472   CU        0.589512    0.607695    0.405307     0.006663
CU2473   CU        0.589832    0.639780    0.437966     0.006663
CU2474   CU        0.620922    0.610009    0.439447     0.006663
NI2475   NI        0.625023    0.640345    0.408188     0.004307
CU2476   CU        0.656764    0.611003    0.405653     0.006663
NI2477   NI        0.656942    0.640179    0.440507     0.004307
CU2478   CU        0.689188    0.611532    0.439808     0.006663
NI2479   NI        0.689801    0.643009    0.406409     0.004307
NI2480   NI        0.722876    0.615357    0.404122     0.004307
NI2481   NI        0.720174    0.641122    0.441877     0.004307
NI2482   NI        0.773686    0.611870    0.438722     0.004307
NI2483   NI        0.770310    0.648317    0.402231     0.004307
NI2484   NI        0.804083    0.615701    0.404037     0.004307
CU2485   CU        0.803292    0.645466    0.437968     0.006663
NI2486   NI        0.836393    0.616523    0.438169     0.004307
NI2487   NI        0.838247    0.645111    0.404426     0.004307
CU2488   CU        0.867959    0.612332    0.401797     0.006663
NI2489   NI        0.079966    0.676740    0.440749     0.004307
NI2490   NI        0.110609    0.676515    0.403699     0.004307
NI2491   NI        0.113366    0.703412    0.438154     0.004307
NI2492   NI        0.146831    0.674858    0.439197     0.004307
NI2493   NI        0.145900    0.705811    0.403566     0.004307
NI2494   NI        0.177246    0.675291    0.405144     0.004307
NI2495   NI        0.178638    0.705648    0.439135     0.004307
NI2496   NI        0.211631    0.677854    0.437480     0.004307
CU2497   CU        0.212179    0.707652    0.402436     0.006663
CU2498   CU        0.243857    0.680325    0.398667     0.006663
CU2499   CU        0.243977    0.707115    0.433506     0.006663
NI2500   NI        0.288056    0.665371    0.439264     0.004307
CU2501   CU        0.278761    0.708252    0.398716     0.006663
NI2502   NI        0.312248    0.679283    0.398267     0.004307
NI2503   NI        0.313183    0.708397    0.431542     0.004307
CU2504   CU        0.357811    0.664620    0.441767     0.006663
NI2505   NI        0.347047    0.709165    0.398167     0.004307
NI2506   NI        0.391080    0.663533    0.408118     0.004307
NI2507   NI        0.392935    0.693663    0.441062     0.004307
NI2508   NI        0.424916    0.665874    0.441018     0.004307
NI2509   NI        0.427171    0.694241    0.409234     0.004307
CU2510   CU        0.458302    0.666566    0.403975     0.006663
NI2511   NI        0.454510    0.712429    0.439726     0.004307
CU2512   CU        0.490087    0.667498    0.438363     0.006663
NI2513   NI        0.490405    0.695679    0.404576     0.004307
NI2514   NI        0.522714    0.669006    0.404081     0.004307
CU2515   CU        0.524263    0.713494    0.441022     0.006663
CU2516   CU        0.557897    0.667139    0.438689     0.006663
NI2517   NI        0.556628    0.699740    0.410549     0.004307
NI2518   NI        0.597211    0.677480    0.394778     0.004307
NI2519   NI        0.595032    0.714445    0.439478     0.004307
NI2520   NI        0.623358    0.665827    0.441492     0.004307
NI2521   NI        0.629848    0.706643    0.399660     0.004307
NI2522   NI        0.656535    0.671478    0.408247     0.004307
NI2523   NI        0.668015    0.708811    0.437554     0.004307
CU2524   CU        0.688179    0.671105    0.442055     0.006663
NI2525   NI        0.701201    0.708210    0.404651     0.004307
NI2526   NI        0.738442    0.678718    0.400981     0.004307
NI2527   NI        0.735399    0.706746    0.436897     0.004307
NI2528   NI        0.770184    0.676707    0.438771     0.004307
NI2529   NI        0.769271    0.705870    0.403084     0.004307
NI2530   NI        0.802532    0.676675    0.405508     0.004307
NI2531   NI        0.799407    0.707482    0.438872     0.004307
NI2532   NI        0.873585    0.641110    0.440409     0.004307
NI2533   NI        0.145503    0.733647    0.437895     0.004307
NI2534   NI        0.177965    0.736601    0.403939     0.004307
CU2535   CU        0.178111    0.762861    0.438890     0.006663
NI2536   NI        0.211240    0.735801    0.437132     0.004307
NI2537   NI        0.212635    0.762270    0.402008     0.004307
NI2538   NI        0.245706    0.735450    0.401920     0.004307
NI2539   NI        0.244735    0.763291    0.437946     0.004307
NI2540   NI        0.278244    0.737337    0.434181     0.004307
CU2541   CU        0.280471    0.763579    0.400756     0.006663
NI2542   NI        0.314654    0.735967    0.399690     0.004307
NI2543   NI        0.313294    0.762701    0.435216     0.004307
NI2544   NI        0.347049    0.734787    0.432986     0.004307
NI2545   NI        0.349081    0.765318    0.400833     0.004307
NI2546   NI        0.384002    0.738767    0.401094     0.004307
NI2547   NI        0.385070    0.770828    0.436996     0.004307
NI2548   NI        0.421785    0.744107    0.436799     0.004307
CU2549   CU        0.419291    0.767249    0.400767     0.006663
CU2550   CU        0.457289    0.740305    0.402965     0.006663
NI2551   NI        0.459059    0.768971    0.433853     0.004307
NI2552   NI        0.490338    0.738328    0.437794     0.004307
CU2553   CU        0.493629    0.766636    0.401430     0.006663
NI2554   NI        0.527603    0.740314    0.403289     0.004307
NI2555   NI        0.527252    0.766906    0.435602     0.004307
CU2556   CU        0.559953    0.738584    0.435167     0.006663
CU2557   CU        0.562472    0.766412    0.402232     0.006663
NI2558   NI        0.600302    0.737090    0.400932     0.004307
NI2559   NI        0.597407    0.765925    0.436239     0.004307
NI2560   NI        0.631438    0.736466    0.438480     0.004307
NI2561   NI        0.632678    0.765121    0.404094     0.004307
NI2562   NI        0.665637    0.738033    0.403419     0.004307
NI2563   NI        0.667739    0.764862    0.440284     0.004307
CU2564   CU        0.701512    0.737059    0.437911     0.006663
NI2565   NI        0.699474    0.763606    0.407432     0.004307
NI2566   NI        0.736360    0.736158    0.402323     0.004307
NI2567   NI        0.732917    0.763421    0.440559     0.004307
NI2568   NI        0.767516    0.734508    0.439120     0.004307
NI2569   NI        0.247225    0.791742    0.402974     0.004307
NI2570   NI        0.280144    0.791341    0.436906     0.004307
NI2571   NI        0.313446    0.792165    0.402415     0.004307
NI2572   NI        0.313628    0.818787    0.436271     0.004307
NI2573   NI        0.345725    0.793020    0.435245     0.004307
NI2574   NI        0.347205    0.818457    0.402707     0.004307
NI2575   NI        0.386664    0.793343    0.400940     0.004307
NI2576   NI        0.380631    0.890526    0.439659     0.004307
NI2577   NI        0.422571    0.796770    0.436679     0.004307
NI2578   NI        0.423165    0.818252    0.398658     0.004307
NI2579   NI        0.457876    0.795682    0.400886     0.004307
NI2580   NI        0.457561    0.821553    0.434529     0.004307
CU2581   CU        0.493589    0.795245    0.436178     0.006663
NI2582   NI        0.490841    0.821651    0.398004     0.004307
NI2583   NI        0.525863    0.793929    0.399631     0.004307
NI2584   NI        0.530825    0.819872    0.438214     0.004307
NI2585   NI        0.561801    0.791832    0.437342     0.004307
NI2586   NI        0.561709    0.820086    0.400758     0.004307
NI2587   NI        0.595453    0.793510    0.402359     0.004307
NI2588   NI        0.596066    0.819826    0.436335     0.004307
NI2589   NI        0.632793    0.791134    0.438635     0.004307
NI2590   NI        0.666398    0.792476    0.404327     0.004307
NI2591   NI        0.318688    0.040475    0.508798     0.004307
NI2592   NI        0.348040    0.042074    0.471968     0.004307
NI2593   NI        0.385834    0.044670    0.506665     0.004307
NI2594   NI        0.421877    0.040042    0.470668     0.004307
NI2595   NI        0.458614    0.039223    0.508739     0.004307
NI2596   NI        0.493530    0.039558    0.470940     0.004307
CU2597   CU        0.528473    0.041129    0.506811     0.006663
NI2598   NI        0.561873    0.042318    0.473030     0.004307
NI2599   NI        0.595116    0.040946    0.507377     0.004307
NI2600   NI        0.177283    0.097886    0.509987     0.004307
CU2601   CU        0.210579    0.096362    0.475199     0.006663
CU2602   CU        0.246930    0.068695    0.474932     0.006663
NI2603   NI        0.248368    0.095808    0.507907     0.004307
NI2604   NI        0.279688    0.065483    0.508223     0.004307
NI2605   NI        0.278540    0.095547    0.471285     0.004307
NI2606   NI        0.313862    0.068635    0.473025     0.004307
NI2607   NI        0.313656    0.093132    0.508995     0.004307
CU2608   CU        0.347694    0.069696    0.505659     0.006663
NI2609   NI        0.349900    0.096456    0.470734     0.004307
CU2610   CU        0.384961    0.065944    0.469311     0.006663
NI2611   NI        0.388948    0.087711    0.507813     0.004307
NI2612   NI        0.426072    0.063794    0.506963     0.004307
CU2613   CU        0.423687    0.090381    0.471381     0.006663
NI2614   NI        0.457643    0.065037    0.472290     0.004307
NI2615   NI        0.457646    0.091699    0.507128     0.004307
NI2616   NI        0.492595    0.063980    0.508379     0.004307
CU2617   CU        0.493087    0.092141    0.473568     0.006663
NI2618   NI        0.529624    0.067633    0.473902     0.004307
CU2619   CU        0.528384    0.093646    0.508234     0.006663
CU2620   CU        0.563378    0.067935    0.508576     0.006663
NI2621   NI        0.564080    0.094457    0.471808     0.004307
NI2622   NI        0.600080    0.066761    0.473184     0.004307
NI2623   NI        0.598919    0.097130    0.506913     0.004307
NI2624   NI        0.630777    0.069958    0.505989     0.004307
CU2625   CU        0.631703    0.095049    0.468885     0.006663
NI2626   NI        0.667565    0.066564    0.470783     0.004307
NI2627   NI        0.666378    0.096359    0.505755     0.004307
CU2628   CU        0.698119    0.095117    0.471489     0.006663
NI2629   NI        0.737752    0.096335    0.510453     0.004307
NI2630   NI        0.111955    0.155742    0.508131     0.004307
NI2631   NI        0.144386    0.127893    0.508767     0.004307
CU2632   CU        0.144232    0.152637    0.472945     0.006663
NI2633   NI        0.177183    0.123638    0.473802     0.004307
CU2634   CU        0.179874    0.153474    0.507398     0.006663
NI2635   NI        0.211534    0.125066    0.506406     0.004307
NI2636   NI        0.210879    0.152228    0.472046     0.004307
CU2637   CU        0.246507    0.124431    0.474429     0.006663
CU2638   CU        0.244005    0.152469    0.509536     0.006663
NI2639   NI        0.280243    0.121741    0.507354     0.004307
CU2640   CU        0.283590    0.149941    0.476526     0.006663
NI2641   NI        0.312302    0.119011    0.474236     0.004307
NI2642   NI        0.315823    0.145865    0.510945     0.004307
NI2643   NI        0.357447    0.131003    0.505651     0.004307
NI2644   NI        0.356860    0.167968    0.473136     0.004307
NI2645   NI        0.386224    0.121370    0.470686     0.004307
NI2646   NI        0.390006    0.164970    0.506725     0.004307
NI2647   NI        0.421151    0.134655    0.506268     0.004307
CU2648   CU        0.424463    0.165998    0.471620     0.006663
CU2649   CU        0.457843    0.117271    0.473589     0.006663
NI2650   NI        0.455691    0.165319    0.506735     0.004307
CU2651   CU        0.491592    0.119305    0.507858     0.006663
NI2652   NI        0.487931    0.166693    0.472262     0.004307
NI2653   NI        0.529022    0.121223    0.474306     0.004307
NI2654   NI        0.529809    0.146579    0.509026     0.004307
NI2655   NI        0.564242    0.121770    0.506704     0.004307
NI2656   NI        0.561370    0.149474    0.472723     0.004307
NI2657   NI        0.598007    0.123139    0.470798     0.004307
CU2658   CU        0.600476    0.150959    0.506477     0.006663
CU2659   CU        0.633915    0.124191    0.506429     0.006663
NI2660   NI        0.633432    0.152280    0.469926     0.004307
NI2661   NI        0.664652    0.122792    0.468872     0.004307
NI2662   NI        0.667556    0.152176    0.506210     0.004307
NI2663   NI        0.703844    0.122885    0.507318     0.004307
CU2664   CU        0.703137    0.152777    0.470569     0.006663
NI2665   NI        0.736024    0.125108    0.474004     0.004307
NI2666   NI        0.735384    0.153366    0.510004     0.004307
NI2667   NI        0.767892    0.127234    0.507066     0.004307
NI2668   NI        0.769738    0.153748    0.473209     0.004307
NI2669   NI        0.803130    0.154858    0.504403     0.004307
CU2670   CU        0.079058    0.185969    0.509669     0.006663
NI2671   NI        0.077852    0.214288    0.470874     0.004307
NI2672   NI        0.110490    0.185005    0.474477     0.004307
NI2673   NI        0.107936    0.215176    0.506795     0.004307
NI2674   NI        0.143011    0.181606    0.508193     0.004307
CU2675   CU        0.142887    0.213237    0.472388     0.006663
NI2676   NI        0.175243    0.181350    0.472446     0.004307
NI2677   NI        0.172067    0.211796    0.510864     0.004307
NI2678   NI        0.212561    0.181254    0.506661     0.004307
CU2679   CU        0.222547    0.226991    0.474650     0.006663
NI2680   NI        0.245413    0.176502    0.471560     0.004307
NI2681   NI        0.257479    0.224598    0.508619     0.004307
NI2682   NI        0.291793    0.198014    0.508472     0.004307
CU2683   CU        0.289506    0.225579    0.474363     0.006663
NI2684   NI        0.322145    0.195259    0.474913     0.004307
CU2685   CU        0.324911    0.224694    0.507135     0.006663
NI2686   NI        0.355349    0.193969    0.508608     0.004307
CU2687   CU        0.357056    0.223402    0.474933     0.006663
CU2688   CU        0.389388    0.195217    0.473366     0.006663
NI2689   NI        0.389288    0.223863    0.508465     0.004307
CU2690   CU        0.421678    0.193785    0.506197     0.006663
CU2691   CU        0.422502    0.223859    0.471724     0.006663
CU2692   CU        0.456859    0.196235    0.472769     0.006663
CU2693   CU        0.456568    0.224126    0.504934     0.006663
NI2694   NI        0.488688    0.195042    0.503317     0.004307
CU2695   CU        0.491779    0.223368    0.472232     0.006663
NI2696   NI        0.522792    0.193283    0.470649     0.004307
CU2697   CU        0.526585    0.221565    0.506490     0.006663
CU2698   CU        0.567396    0.177922    0.505713     0.006663
CU2699   CU        0.565191    0.208197    0.473376     0.006663
NI2700   NI        0.596738    0.179963    0.468423     0.004307
NI2701   NI        0.599700    0.207872    0.504011     0.004307
CU2702   CU        0.633550    0.179512    0.506724     0.006663
NI2703   NI        0.634766    0.209857    0.471446     0.004307
CU2704   CU        0.668073    0.180580    0.470764     0.006663
NI2705   NI        0.667669    0.211598    0.504054     0.004307
NI2706   NI        0.700593    0.181690    0.505869     0.004307
NI2707   NI        0.703797    0.211302    0.471387     0.004307
NI2708   NI        0.736947    0.181846    0.474674     0.004307
NI2709   NI        0.735699    0.212648    0.506115     0.004307
CU2710   CU        0.769880    0.182905    0.507655     0.006663
CU2711   CU        0.769261    0.210780    0.472462     0.006663
CU2712   CU        0.801961    0.183305    0.470334     0.006663
CU2713   CU        0.803416    0.213749    0.509830     0.006663
NI2714   NI        0.832760    0.184246    0.506235     0.004307
NI2715   NI        0.832002    0.213244    0.474686     0.004307
NI2716   NI        0.047226    0.242810    0.474260     0.004307
NI2717   NI        0.046217    0.274504    0.509857     0.004307
NI2718   NI        0.077718    0.243794    0.509311     0.004307
NI2719   NI        0.077470    0.274261    0.472998     0.004307
CU2720   CU        0.110389    0.243336    0.473156     0.006663
NI2721   NI        0.108517    0.273958    0.509117     0.004307
CU2722   CU        0.140244    0.242892    0.510129     0.006663
CU2723   CU        0.141362    0.273687    0.471591     0.006663
NI2724   NI        0.188741    0.253289    0.473489     0.004307
NI2725   NI        0.191612    0.282122    0.506138     0.004307
NI2726   NI        0.222514    0.252279    0.510649     0.004307
NI2727   NI        0.224285    0.282933    0.474300     0.004307
CU2728   CU        0.256784    0.253558    0.475413     0.006663
CU2729   CU        0.257033    0.282521    0.506225     0.006663
CU2730   CU        0.290197    0.252842    0.507079     0.006663
CU2731   CU        0.290864    0.283420    0.473568     0.006663
CU2732   CU        0.323200    0.254265    0.473425     0.006663
CU2733   CU        0.323117    0.281409    0.506036     0.006663
CU2734   CU        0.355542    0.253672    0.506167     0.006663
CU2735   CU        0.356636    0.282952    0.473180     0.006663
CU2736   CU        0.388491    0.251092    0.472922     0.006663
CU2737   CU        0.388998    0.281239    0.507617     0.006663
CU2738   CU        0.422186    0.250577    0.505412     0.006663
CU2739   CU        0.424146    0.279185    0.471976     0.006663
CU2740   CU        0.456674    0.251661    0.471652     0.006663
CU2741   CU        0.454730    0.281464    0.505256     0.006663
CU2742   CU        0.491646    0.250921    0.505113     0.006663
CU2743   CU        0.491045    0.280596    0.472191     0.006663
CU2744   CU        0.526422    0.253423    0.471973     0.006663
CU2745   CU        0.523452    0.281487    0.504443     0.006663
NI2746   NI        0.555269    0.254540    0.507585     0.004307
CU2747   CU        0.557471    0.282823    0.470958     0.006663
CU2748   CU        0.589602    0.254547    0.472341     0.006663
CU2749   CU        0.586851    0.283511    0.505693     0.006663
NI2750   NI        0.620296    0.254935    0.507333     0.004307
CU2751   CU        0.620849    0.284303    0.474072     0.006663
NI2752   NI        0.672328    0.242389    0.471056     0.004307
CU2753   CU        0.654912    0.285512    0.505739     0.006663
CU2754   CU        0.703108    0.241440    0.505432     0.006663
NI2755   NI        0.704057    0.270252    0.470096     0.004307
CU2756   CU        0.735538    0.240970    0.472742     0.006663
CU2757   CU        0.734444    0.271184    0.505435     0.006663
NI2758   NI        0.768562    0.242046    0.507544     0.004307
NI2759   NI        0.769198    0.276311    0.473829     0.004307
NI2760   NI        0.799501    0.242435    0.473569     0.004307
NI2761   NI        0.804179    0.273625    0.508649     0.004307
NI2762   NI        0.834763    0.242864    0.508010     0.004307
NI2763   NI        0.833262    0.273555    0.471611     0.004307
NI2764   NI        0.864187    0.244116    0.469829     0.004307
NI2765   NI        0.865525    0.273295    0.507270     0.004307
NI2766   NI        0.015530    0.303937    0.510546     0.004307
NI2767   NI        0.013743    0.332595    0.476330     0.004307
NI2768   NI        0.046842    0.304025    0.474861     0.004307
NI2769   NI        0.043515    0.335505    0.508174     0.004307
NI2770   NI        0.076398    0.304023    0.508982     0.004307
NI2771   NI        0.075586    0.334687    0.472588     0.004307
NI2772   NI        0.106782    0.302654    0.475198     0.004307
NI2773   NI        0.104314    0.335407    0.509278     0.004307
NI2774   NI        0.136382    0.305462    0.509382     0.004307
NI2775   NI        0.132936    0.333223    0.470763     0.004307
CU2776   CU        0.193287    0.312649    0.476512     0.006663
NI2777   NI        0.191677    0.342518    0.507593     0.004307
CU2778   CU        0.223426    0.310269    0.507820     0.006663
NI2779   NI        0.221386    0.340908    0.476162     0.004307
CU2780   CU        0.255804    0.311952    0.474458     0.006663
CU2781   CU        0.254176    0.341897    0.507343     0.006663
CU2782   CU        0.289556    0.313947    0.505696     0.006663
CU2783   CU        0.291354    0.341805    0.473264     0.006663
NI2784   NI        0.323328    0.312001    0.474162     0.004307
CU2785   CU        0.323903    0.342004    0.507255     0.006663
CU2786   CU        0.355528    0.311201    0.505632     0.006663
CU2787   CU        0.355077    0.341101    0.472538     0.006663
NI2788   NI        0.389235    0.311433    0.475294     0.004307
CU2789   CU        0.387689    0.343464    0.506186     0.006663
CU2790   CU        0.422002    0.310525    0.508540     0.006663
CU2791   CU        0.422988    0.339665    0.472636     0.006663
CU2792   CU        0.455765    0.310143    0.474468     0.006663
CU2793   CU        0.455642    0.339585    0.507484     0.006663
CU2794   CU        0.488250    0.310815    0.508995     0.006663
CU2795   CU        0.487314    0.340939    0.472804     0.006663
CU2796   CU        0.523239    0.309632    0.471512     0.006663
CU2797   CU        0.522995    0.343171    0.506492     0.006663
CU2798   CU        0.557519    0.312625    0.504598     0.006663
CU2799   CU        0.556618    0.340052    0.473714     0.006663
CU2800   CU        0.589385    0.312092    0.471521     0.006663
CU2801   CU        0.587700    0.341869    0.506246     0.006663
NI2802   NI        0.621741    0.313272    0.506190     0.004307
CU2803   CU        0.622729    0.342209    0.474004     0.006663
CU2804   CU        0.653944    0.313367    0.472598     0.006663
NI2805   NI        0.654845    0.340468    0.506710     0.004307
NI2806   NI        0.686476    0.312939    0.506429     0.004307
NI2807   NI        0.688874    0.342497    0.475267     0.004307
CU2808   CU        0.736515    0.302584    0.469736     0.006663
NI2809   NI        0.721797    0.341735    0.507821     0.004307
NI2810   NI        0.771029    0.303448    0.506845     0.004307
NI2811   NI        0.771395    0.336449    0.472174     0.004307
NI2812   NI        0.802672    0.304601    0.472776     0.004307
NI2813   NI        0.801939    0.333023    0.509515     0.004307
NI2814   NI        0.835992    0.305421    0.508623     0.004307
NI2815   NI        0.836030    0.337336    0.472445     0.004307
NI2816   NI        0.865353    0.305511    0.470345     0.004307
CU2817   CU        0.865475    0.336617    0.508194     0.006663
CU2818   CU        0.896497    0.303689    0.504807     0.006663
NI2819   NI        0.897698    0.334519    0.473725     0.004307
NI2820   NI        0.013080    0.365805    0.510377     0.004307
NI2821   NI        0.014049    0.399797    0.473307     0.004307
CU2822   CU        0.042303    0.365634    0.473619     0.006663
CU2823   CU        0.042714    0.398897    0.511398     0.006663
CU2824   CU        0.073690    0.366853    0.509492     0.006663
CU2825   CU        0.073285    0.397592    0.476867     0.006663
NI2826   NI        0.105213    0.367083    0.476152     0.004307
NI2827   NI        0.105200    0.396695    0.510435     0.004307
NI2828   NI        0.157116    0.373988    0.506651     0.004307
NI2829   NI        0.157903    0.401367    0.474098     0.004307
NI2830   NI        0.189615    0.370383    0.476025     0.004307
CU2831   CU        0.188850    0.400159    0.508165     0.006663
CU2832   CU        0.223161    0.370278    0.507404     0.006663
CU2833   CU        0.221717    0.403373    0.474029     0.006663
CU2834   CU        0.254132    0.372792    0.473091     0.006663
CU2835   CU        0.254188    0.399814    0.507932     0.006663
CU2836   CU        0.285935    0.370431    0.504773     0.006663
CU2837   CU        0.287854    0.401815    0.474997     0.006663
CU2838   CU        0.324058    0.371258    0.473381     0.006663
CU2839   CU        0.322390    0.400327    0.505403     0.006663
CU2840   CU        0.355527    0.370351    0.508775     0.006663
CU2841   CU        0.356472    0.399514    0.470806     0.006663
CU2842   CU        0.390567    0.370766    0.470419     0.006663
CU2843   CU        0.388763    0.399031    0.503493     0.006663
CU2844   CU        0.421892    0.372118    0.505044     0.006663
CU2845   CU        0.421670    0.402157    0.472129     0.006663
CU2846   CU        0.453754    0.370603    0.470616     0.006663
CU2847   CU        0.454606    0.401689    0.506093     0.006663
CU2848   CU        0.489670    0.370852    0.505093     0.006663
CU2849   CU        0.490617    0.402185    0.475498     0.006663
NI2850   NI        0.523503    0.370973    0.474785     0.004307
CU2851   CU        0.527072    0.398395    0.509210     0.006663
CU2852   CU        0.555986    0.369460    0.507285     0.006663
CU2853   CU        0.557900    0.399267    0.475268     0.006663
CU2854   CU        0.590698    0.371122    0.473626     0.006663
CU2855   CU        0.591662    0.398546    0.508417     0.006663
NI2856   NI        0.624739    0.372236    0.506676     0.004307
CU2857   CU        0.624248    0.400071    0.474173     0.006663
CU2858   CU        0.655538    0.371094    0.474285     0.006663
CU2859   CU        0.657789    0.400256    0.508730     0.006663
CU2860   CU        0.690511    0.371165    0.506941     0.006663
CU2861   CU        0.690861    0.400369    0.474965     0.006663
NI2862   NI        0.722660    0.369788    0.473583     0.004307
NI2863   NI        0.722758    0.400009    0.506463     0.004307
NI2864   NI        0.774993    0.368450    0.509042     0.004307
NI2865   NI        0.775305    0.397372    0.473257     0.004307
NI2866   NI        0.803956    0.367000    0.474345     0.004307
CU2867   CU        0.806598    0.398445    0.506255     0.006663
NI2868   NI        0.837076    0.365708    0.507193     0.004307
CU2869   CU        0.836968    0.397484    0.471726     0.006663
NI2870   NI        0.867849    0.366095    0.472833     0.004307
CU2871   CU        0.867923    0.397984    0.505874     0.006663
NI2872   NI        0.896626    0.365678    0.506546     0.004307
NI2873   NI        0.897684    0.396066    0.471662     0.004307
NI2874   NI        0.010910    0.429222    0.508624     0.004307
NI2875   NI        0.009905    0.456640    0.472514     0.004307
NI2876   NI        0.042208    0.429711    0.473253     0.004307
NI2877   NI        0.041414    0.458620    0.508393     0.004307
NI2878   NI        0.073594    0.428691    0.508677     0.004307
NI2879   NI        0.072712    0.459364    0.473006     0.004307
NI2880   NI        0.102476    0.427236    0.473896     0.004307
NI2881   NI        0.126393    0.464262    0.508289     0.004307
NI2882   NI        0.156889    0.429087    0.510336     0.004307
NI2883   NI        0.155713    0.459891    0.475581     0.004307
CU2884   CU        0.190714    0.429789    0.475428     0.006663
NI2885   NI        0.189336    0.458876    0.505994     0.004307
NI2886   NI        0.221894    0.429253    0.508302     0.004307
CU2887   CU        0.222225    0.460023    0.473559     0.006663
CU2888   CU        0.256447    0.430993    0.475050     0.006663
CU2889   CU        0.255035    0.461110    0.506242     0.006663
CU2890   CU        0.289198    0.429583    0.509103     0.006663
CU2891   CU        0.290302    0.461242    0.474524     0.006663
CU2892   CU        0.321271    0.430409    0.472594     0.006663
CU2893   CU        0.321526    0.459460    0.505974     0.006663
NI2894   NI        0.356180    0.428523    0.504715     0.004307
CU2895   CU        0.356998    0.460125    0.471981     0.006663
CU2896   CU        0.388003    0.429685    0.471643     0.006663
NI2897   NI        0.389817    0.458836    0.505244     0.004307
CU2898   CU        0.423926    0.429581    0.505370     0.006663
CU2899   CU        0.423152    0.459562    0.473486     0.006663
CU2900   CU        0.455145    0.430346    0.471065     0.006663
CU2901   CU        0.458450    0.460899    0.506332     0.006663
CU2902   CU        0.490592    0.430122    0.508319     0.006663
CU2903   CU        0.491208    0.457817    0.472029     0.006663
CU2904   CU        0.525374    0.428640    0.474172     0.006663
CU2905   CU        0.523724    0.459536    0.506699     0.006663
CU2906   CU        0.558170    0.430189    0.509405     0.006663
CU2907   CU        0.558103    0.461897    0.473867     0.006663
CU2908   CU        0.590531    0.431427    0.476952     0.006663
CU2909   CU        0.592237    0.462833    0.505590     0.006663
CU2910   CU        0.624323    0.429631    0.507958     0.006663
NI2911   NI        0.625633    0.461670    0.473876     0.004307
NI2912   NI        0.657041    0.430170    0.476483     0.004307
NI2913   NI        0.659516    0.459599    0.509043     0.004307
CU2914   CU        0.691069    0.430122    0.507852     0.006663
CU2915   CU        0.690830    0.461725    0.475644     0.006663
NI2916   NI        0.723435    0.430310    0.473203     0.004307
NI2917   NI        0.722972    0.457715    0.507145     0.004307
NI2918   NI        0.776055    0.428113    0.506870     0.004307
NI2919   NI        0.776166    0.459849    0.470369     0.004307
NI2920   NI        0.805568    0.427707    0.471294     0.004307
NI2921   NI        0.807031    0.459287    0.505319     0.004307
CU2922   CU        0.838394    0.429340    0.507151     0.006663
NI2923   NI        0.836698    0.460428    0.471828     0.004307
CU2924   CU        0.868541    0.429852    0.472283     0.006663
NI2925   NI        0.868311    0.460002    0.504824     0.004307
NI2926   NI        0.896215    0.430202    0.506503     0.004307
CU2927   CU        0.898810    0.461313    0.470530     0.006663
NI2928   NI        0.007759    0.484207    0.504406     0.004307
CU2929   CU        0.000667    0.515166    0.475734     0.006663
NI2930   NI        0.040097    0.489114    0.472423     0.004307
CU2931   CU        0.038754    0.516554    0.506083     0.006663
CU2932   CU        0.070435    0.490215    0.506894     0.006663
NI2933   NI        0.069368    0.519422    0.473963     0.004307
NI2934   NI        0.125161    0.492675    0.475769     0.004307
NI2935   NI        0.101640    0.520322    0.506846     0.004307
NI2936   NI        0.157838    0.490967    0.509734     0.004307
NI2937   NI        0.155566    0.520605    0.474858     0.004307
NI2938   NI        0.186786    0.489628    0.475063     0.004307
CU2939   CU        0.188756    0.521252    0.508230     0.006663
CU2940   CU        0.222076    0.489620    0.506977     0.006663
NI2941   NI        0.222604    0.519516    0.473732     0.004307
CU2942   CU        0.255321    0.489898    0.473559     0.006663
CU2943   CU        0.255730    0.518155    0.507539     0.006663
CU2944   CU        0.289000    0.490783    0.507379     0.006663
CU2945   CU        0.290509    0.518198    0.474317     0.006663
CU2946   CU        0.323885    0.488514    0.473156     0.006663
CU2947   CU        0.322578    0.517844    0.508594     0.006663
CU2948   CU        0.356593    0.488457    0.506765     0.006663
CU2949   CU        0.358068    0.517311    0.472748     0.006663
CU2950   CU        0.390596    0.487767    0.472545     0.006663
CU2951   CU        0.389467    0.517707    0.506962     0.006663
CU2952   CU        0.424170    0.488181    0.507817     0.006663
CU2953   CU        0.425213    0.517384    0.473540     0.006663
CU2954   CU        0.458370    0.488849    0.471938     0.006663
CU2955   CU        0.457708    0.518586    0.506729     0.006663
CU2956   CU        0.491998    0.490152    0.505183     0.006663
CU2957   CU        0.489638    0.518434    0.472600     0.006663
CU2958   CU        0.522798    0.489817    0.470592     0.006663
CU2959   CU        0.524250    0.517850    0.504796     0.006663
NI2960   NI        0.555605    0.489905    0.507230     0.004307
CU2961   CU        0.556866    0.520112    0.473554     0.006663
CU2962   CU        0.591156    0.491391    0.475533     0.006663
CU2963   CU        0.591506    0.520538    0.507367     0.006663
CU2964   CU        0.624424    0.490140    0.508735     0.006663
CU2965   CU        0.625889    0.519035    0.473746     0.006663
CU2966   CU        0.656434    0.489380    0.477230     0.006663
CU2967   CU        0.659533    0.520767    0.507464     0.006663
NI2968   NI        0.690928    0.490231    0.509622     0.004307
CU2969   CU        0.690696    0.519609    0.473440     0.006663
NI2970   NI        0.721257    0.489960    0.475188     0.004307
CU2971   CU        0.722592    0.520100    0.506760     0.006663
NI2972   NI        0.776927    0.490884    0.506668     0.004307
NI2973   NI        0.755216    0.521337    0.471859     0.004307
NI2974   NI        0.805527    0.490710    0.472372     0.004307
NI2975   NI        0.804919    0.522116    0.508177     0.004307
NI2976   NI        0.838564    0.489729    0.505965     0.004307
CU2977   CU        0.836619    0.520472    0.472541     0.006663
NI2978   NI        0.866890    0.491032    0.471248     0.004307
NI2979   NI        0.867418    0.521321    0.507031     0.004307
NI2980   NI        0.898257    0.490904    0.505554     0.004307
CU2981   CU        0.898668    0.521203    0.473027     0.006663
NI2982   NI        0.013654    0.583612    0.471427     0.004307
NI2983   NI        0.045347    0.556048    0.470789     0.004307
NI2984   NI        0.047575    0.584360    0.509832     0.004307
NI2985   NI        0.068082    0.547371    0.508988     0.004307
NI2986   NI        0.077217    0.588019    0.470943     0.004307
NI2987   NI        0.120646    0.547283    0.478546     0.004307
NI2988   NI        0.111177    0.586949    0.503303     0.004307
NI2989   NI        0.155738    0.550488    0.508616     0.004307
NI2990   NI        0.144937    0.587142    0.467952     0.004307
NI2991   NI        0.190475    0.548974    0.476461     0.004307
NI2992   NI        0.193142    0.576505    0.508110     0.004307
CU2993   CU        0.223809    0.547619    0.508792     0.006663
NI2994   NI        0.211874    0.583844    0.469777     0.004307
CU2995   CU        0.256320    0.546465    0.475208     0.006663
NI2996   NI        0.257178    0.578257    0.509446     0.004307
CU2997   CU        0.287426    0.547511    0.508688     0.006663
CU2998   CU        0.288811    0.576702    0.473959     0.006663
CU2999   CU        0.322793    0.548152    0.474035     0.006663
CU3000   CU        0.322978    0.575738    0.507568     0.006663
CU3001   CU        0.357146    0.548905    0.504081     0.006663
CU3002   CU        0.355183    0.579695    0.473659     0.006663
CU3003   CU        0.390855    0.545750    0.472057     0.006663
NI3004   NI        0.389953    0.577112    0.504688     0.004307
CU3005   CU        0.424252    0.546942    0.503698     0.006663
CU3006   CU        0.425658    0.578332    0.471622     0.006663
CU3007   CU        0.458680    0.550323    0.472213     0.006663
CU3008   CU        0.455264    0.574620    0.507577     0.006663
CU3009   CU        0.492272    0.547137    0.507338     0.006663
CU3010   CU        0.491737    0.579136    0.473203     0.006663
NI3011   NI        0.523123    0.549072    0.469986     0.004307
CU3012   CU        0.523219    0.578778    0.509919     0.006663
NI3013   NI        0.555958    0.548570    0.505999     0.004307
CU3014   CU        0.555235    0.578956    0.472339     0.006663
CU3015   CU        0.590665    0.552667    0.473203     0.006663
CU3016   CU        0.592016    0.579537    0.506084     0.006663
CU3017   CU        0.626539    0.549876    0.507895     0.006663
CU3018   CU        0.626203    0.579332    0.473277     0.006663
CU3019   CU        0.658350    0.549334    0.474540     0.006663
CU3020   CU        0.657854    0.578926    0.505964     0.006663
NI3021   NI        0.689641    0.549894    0.505806     0.004307
NI3022   NI        0.690371    0.579273    0.472792     0.004307
CU3023   CU        0.722461    0.550313    0.473825     0.006663
CU3024   CU        0.722371    0.579208    0.504931     0.006663
NI3025   NI        0.756323    0.551963    0.504318     0.004307
NI3026   NI        0.754508    0.579835    0.472076     0.004307
NI3027   NI        0.811184    0.551791    0.472584     0.004307
NI3028   NI        0.810093    0.583592    0.508829     0.004307
NI3029   NI        0.839698    0.552958    0.508859     0.004307
NI3030   NI        0.837690    0.583238    0.473416     0.004307
NI3031   NI        0.865600    0.550477    0.471435     0.004307
NI3032   NI        0.868484    0.585409    0.508829     0.004307
NI3033   NI        0.895053    0.553282    0.505694     0.004307
NI3034   NI        0.044307    0.612191    0.473519     0.004307
CU3035   CU        0.078053    0.614600    0.507879     0.006663
NI3036   NI        0.079355    0.648206    0.473594     0.004307
NI3037   NI        0.109328    0.616195    0.472358     0.004307
NI3038   NI        0.110217    0.644215    0.505810     0.004307
NI3039   NI        0.142225    0.617142    0.505139     0.004307
CU3040   CU        0.143379    0.644946    0.472724     0.006663
NI3041   NI        0.177397    0.615413    0.469925     0.004307
NI3042   NI        0.174172    0.648351    0.505614     0.004307
CU3043   CU        0.223095    0.605838    0.509057     0.006663
NI3044   NI        0.210090    0.649006    0.470876     0.004307
NI3045   NI        0.254276    0.605202    0.472459     0.004307
CU3046   CU        0.255312    0.638004    0.508105     0.006663
CU3047   CU        0.288644    0.606931    0.504166     0.006663
NI3048   NI        0.288591    0.637092    0.471998     0.004307
CU3049   CU        0.322435    0.607309    0.475487     0.006663
CU3050   CU        0.323323    0.635134    0.506671     0.006663
CU3051   CU        0.356699    0.605772    0.505787     0.006663
CU3052   CU        0.356935    0.636364    0.473097     0.006663
CU3053   CU        0.390906    0.606835    0.470621     0.006663
CU3054   CU        0.390818    0.634312    0.503841     0.006663
NI3055   NI        0.424580    0.606307    0.503888     0.004307
CU3056   CU        0.425216    0.635270    0.473184     0.006663
CU3057   CU        0.459873    0.605894    0.473309     0.006663
CU3058   CU        0.456646    0.635197    0.505996     0.006663
CU3059   CU        0.490392    0.606342    0.506854     0.006663
NI3060   NI        0.489493    0.637350    0.474572     0.004307
NI3061   NI        0.523567    0.609627    0.472115     0.004307
CU3062   CU        0.522914    0.636968    0.505582     0.006663
NI3063   NI        0.556538    0.609240    0.507036     0.004307
NI3064   NI        0.556983    0.639481    0.472357     0.004307
NI3065   NI        0.589480    0.609893    0.471970     0.004307
NI3066   NI        0.591410    0.637834    0.510067     0.004307
CU3067   CU        0.622782    0.608624    0.509674     0.006663
NI3068   NI        0.623080    0.637573    0.475513     0.004307
CU3069   CU        0.657247    0.608270    0.474717     0.006663
NI3070   NI        0.656724    0.637116    0.507586     0.004307
NI3071   NI        0.688562    0.607305    0.506590     0.004307
NI3072   NI        0.689991    0.639039    0.473052     0.004307
NI3073   NI        0.723757    0.609683    0.471319     0.004307
NI3074   NI        0.720896    0.638415    0.505793     0.004307
NI3075   NI        0.753904    0.607283    0.506992     0.004307
NI3076   NI        0.776010    0.643191    0.474248     0.004307
NI3077   NI        0.804797    0.614340    0.471059     0.004307
NI3078   NI        0.804331    0.643862    0.506968     0.004307
NI3079   NI        0.836504    0.614554    0.507551     0.004307
NI3080   NI        0.836532    0.645243    0.472586     0.004307
NI3081   NI        0.866467    0.614419    0.474159     0.004307
NI3082   NI        0.078656    0.674082    0.510090     0.004307
NI3083   NI        0.112222    0.675467    0.474745     0.004307
NI3084   NI        0.114288    0.705569    0.509019     0.004307
NI3085   NI        0.145388    0.676179    0.508562     0.004307
CU3086   CU        0.146382    0.703221    0.474002     0.006663
NI3087   NI        0.178584    0.676294    0.472906     0.004307
NI3088   NI        0.179802    0.705957    0.508543     0.004307
NI3089   NI        0.209233    0.676909    0.507488     0.004307
NI3090   NI        0.211182    0.707569    0.471596     0.004307
NI3091   NI        0.243058    0.677318    0.469493     0.004307
NI3092   NI        0.243072    0.706688    0.505037     0.004307
NI3093   NI        0.291645    0.663991    0.507081     0.004307
NI3094   NI        0.278422    0.706744    0.467422     0.004307
NI3095   NI        0.323075    0.664455    0.471794     0.004307
NI3096   NI        0.324729    0.691561    0.504924     0.004307
CU3097   CU        0.359181    0.664714    0.505541     0.006663
NI3098   NI        0.358754    0.693780    0.474004     0.004307
CU3099   CU        0.390345    0.664504    0.473316     0.006663
CU3100   CU        0.391965    0.694554    0.506357     0.006663
NI3101   NI        0.424385    0.663889    0.504423     0.004307
NI3102   NI        0.424126    0.693237    0.474722     0.004307
NI3103   NI        0.455837    0.665994    0.471852     0.004307
NI3104   NI        0.455306    0.713821    0.506116     0.004307
CU3105   CU        0.488131    0.666568    0.505253     0.006663
CU3106   CU        0.488531    0.713433    0.474407     0.006663
NI3107   NI        0.522006    0.665582    0.473314     0.004307
NI3108   NI        0.522933    0.713169    0.509913     0.004307
NI3109   NI        0.558909    0.667291    0.507802     0.004307
NI3110   NI        0.558362    0.714666    0.472818     0.004307
NI3111   NI        0.592016    0.664680    0.474825     0.004307
NI3112   NI        0.595320    0.714039    0.509296     0.004307
NI3113   NI        0.623438    0.664638    0.510560     0.004307
NI3114   NI        0.627857    0.711108    0.475775     0.004307
NI3115   NI        0.656035    0.665121    0.474282     0.004307
CU3116   CU        0.663067    0.710843    0.510683     0.006663
NI3117   NI        0.689014    0.668911    0.507737     0.004307
NI3118   NI        0.702302    0.707383    0.469313     0.004307
NI3119   NI        0.719356    0.670440    0.475522     0.004307
NI3120   NI        0.736055    0.706111    0.508984     0.004307
NI3121   NI        0.770257    0.674718    0.510117     0.004307
CU3122   CU        0.770464    0.705629    0.473682     0.006663
NI3123   NI        0.801873    0.675951    0.471300     0.004307
NI3124   NI        0.801441    0.703482    0.503217     0.004307
NI3125   NI        0.835176    0.675067    0.507602     0.004307
NI3126   NI        0.147164    0.735121    0.505073     0.004307
NI3127   NI        0.177738    0.734916    0.470612     0.004307
NI3128   NI        0.178494    0.762915    0.508476     0.004307
NI3129   NI        0.210223    0.734197    0.509323     0.004307
NI3130   NI        0.211613    0.761612    0.475171     0.004307
NI3131   NI        0.244347    0.735266    0.471733     0.004307
NI3132   NI        0.243672    0.764594    0.507814     0.004307
NI3133   NI        0.287629    0.748369    0.506955     0.004307
NI3134   NI        0.278973    0.764729    0.469064     0.004307
NI3135   NI        0.309266    0.736193    0.466969     0.004307
CU3136   CU        0.322845    0.773644    0.506923     0.006663
NI3137   NI        0.355507    0.746395    0.507530     0.004307
NI3138   NI        0.353908    0.773624    0.474168     0.004307
NI3139   NI        0.386216    0.744113    0.473704     0.004307
NI3140   NI        0.390687    0.772800    0.507436     0.004307
NI3141   NI        0.423495    0.744048    0.506544     0.004307
NI3142   NI        0.420683    0.769930    0.472255     0.004307
NI3143   NI        0.455122    0.742062    0.471504     0.004307
NI3144   NI        0.456728    0.770437    0.505593     0.004307
NI3145   NI        0.488339    0.741333    0.507207     0.004307
NI3146   NI        0.491687    0.768649    0.471068     0.004307
CU3147   CU        0.523999    0.738914    0.474658     0.006663
CU3148   CU        0.525267    0.767628    0.507219     0.006663
NI3149   NI        0.558155    0.741849    0.510614     0.004307
CU3150   CU        0.560962    0.766996    0.471661     0.006663
CU3151   CU        0.593925    0.738406    0.475044     0.006663
NI3152   NI        0.596820    0.765650    0.506237     0.004307
NI3153   NI        0.629623    0.739024    0.509544     0.004307
CU3154   CU        0.629756    0.764724    0.472416     0.006663
NI3155   NI        0.662776    0.737593    0.473356     0.004307
NI3156   NI        0.666033    0.765842    0.508251     0.004307
CU3157   CU        0.701521    0.732649    0.506533     0.006663
NI3158   NI        0.701620    0.763738    0.473281     0.004307
NI3159   NI        0.736816    0.733882    0.474229     0.004307
NI3160   NI        0.731465    0.761988    0.507785     0.004307
CU3161   CU        0.770378    0.733364    0.505895     0.006663
NI3162   NI        0.246361    0.791703    0.469364     0.004307
NI3163   NI        0.279871    0.786750    0.505486     0.004307
CU3164   CU        0.312081    0.790759    0.468082     0.006663
NI3165   NI        0.315561    0.813686    0.506188     0.004307
CU3166   CU        0.359175    0.802653    0.506810     0.006663
NI3167   NI        0.343142    0.818509    0.470958     0.004307
CU3168   CU        0.387286    0.800786    0.471843     0.006663
NI3169   NI        0.392935    0.828586    0.504382     0.004307
CU3170   CU        0.424925    0.800091    0.507923     0.006663
NI3171   NI        0.425579    0.825668    0.471832     0.004307
NI3172   NI        0.456477    0.797346    0.470932     0.004307
NI3173   NI        0.461116    0.825451    0.504564     0.004307
CU3174   CU        0.491866    0.795730    0.504946     0.006663
NI3175   NI        0.492407    0.822793    0.472709     0.004307
NI3176   NI        0.524952    0.793969    0.472397     0.004307
NI3177   NI        0.528972    0.821418    0.506082     0.004307
CU3178   CU        0.562554    0.791570    0.508361     0.006663
CU3179   CU        0.559425    0.819185    0.472608     0.006663
NI3180   NI        0.598024    0.793202    0.472062     0.004307
NI3181   NI        0.595281    0.820200    0.508388     0.004307
NI3182   NI        0.631492    0.792018    0.509581     0.004307
NI3183   NI        0.662183    0.793802    0.472096     0.004307
NI3184   NI        0.351270    0.040971    0.541661     0.004307
NI3185   NI        0.386179    0.038816    0.575501     0.004307
NI3186   NI        0.418899    0.039707    0.542702     0.004307
NI3187   NI        0.456045    0.039456    0.583146     0.004307
CU3188   CU        0.496530    0.038760    0.544111     0.006663
NI3189   NI        0.529285    0.040381    0.579385     0.004307
NI3190   NI        0.562650    0.040594    0.540046     0.004307
NI3191   NI        0.210621    0.097168    0.540769     0.004307
NI3192   NI        0.245457    0.065859    0.542903     0.004307
NI3193   NI        0.244727    0.096281    0.578100     0.004307
NI3194   NI        0.277589    0.069630    0.579441     0.004307
CU3195   CU        0.279165    0.094086    0.544856     0.006663
NI3196   NI        0.314478    0.066479    0.541346     0.004307
NI3197   NI        0.314110    0.092912    0.580352     0.004307
NI3198   NI        0.351263    0.065961    0.578319     0.004307
NI3199   NI        0.350358    0.091505    0.543212     0.004307
NI3200   NI        0.386213    0.067245    0.545135     0.004307
NI3201   NI        0.383786    0.093097    0.577914     0.004307
NI3202   NI        0.421562    0.065704    0.578839     0.004307
NI3203   NI        0.423210    0.087353    0.540052     0.004307
NI3204   NI        0.460416    0.065132    0.545827     0.004307
NI3205   NI        0.461011    0.093856    0.580021     0.004307
NI3206   NI        0.495451    0.066662    0.579142     0.004307
CU3207   CU        0.493857    0.091989    0.544062     0.006663
CU3208   CU        0.528585    0.066690    0.542410     0.006663
NI3209   NI        0.529210    0.094354    0.577522     0.004307
CU3210   CU        0.562877    0.068290    0.573214     0.006663
NI3211   NI        0.563221    0.095649    0.540071     0.004307
NI3212   NI        0.597897    0.069554    0.538512     0.004307
NI3213   NI        0.597917    0.093559    0.578104     0.004307
NI3214   NI        0.634743    0.068991    0.577543     0.004307
NI3215   NI        0.632079    0.094967    0.543215     0.004307
CU3216   CU        0.662146    0.065938    0.541410     0.006663
CU3217   CU        0.667054    0.096937    0.574821     0.006663
NI3218   NI        0.700872    0.096582    0.541960     0.004307
CU3219   CU        0.112580    0.155720    0.580006     0.006663
NI3220   NI        0.146163    0.130392    0.577782     0.004307
NI3221   NI        0.144425    0.155439    0.544532     0.004307
NI3222   NI        0.179924    0.126765    0.541274     0.004307
CU3223   CU        0.179958    0.156312    0.577581     0.006663
NI3224   NI        0.212996    0.126010    0.575848     0.004307
NI3225   NI        0.211838    0.153643    0.542124     0.004307
NI3226   NI        0.244870    0.123794    0.543057     0.004307
CU3227   CU        0.246063    0.152078    0.577534     0.006663
NI3228   NI        0.280589    0.124229    0.578840     0.004307
NI3229   NI        0.277302    0.149834    0.541979     0.004307
NI3230   NI        0.313029    0.120495    0.546060     0.004307
NI3231   NI        0.323639    0.165842    0.576611     0.004307
NI3232   NI        0.369121    0.130128    0.577264     0.004307
NI3233   NI        0.356807    0.163110    0.541502     0.004307
NI3234   NI        0.390627    0.135086    0.539253     0.004307
NI3235   NI        0.391276    0.165736    0.574516     0.004307
NI3236   NI        0.422643    0.136813    0.572447     0.004307
CU3237   CU        0.421469    0.164304    0.541049     0.006663
NI3238   NI        0.453986    0.137113    0.540985     0.004307
NI3239   NI        0.454302    0.167803    0.572275     0.004307
NI3240   NI        0.494161    0.122220    0.576645     0.004307
CU3241   CU        0.496233    0.147947    0.541462     0.006663
NI3242   NI        0.529690    0.121036    0.544419     0.004307
CU3243   CU        0.527809    0.148573    0.579919     0.006663
NI3244   NI        0.563286    0.122994    0.576881     0.004307
CU3245   CU        0.568379    0.150071    0.542606     0.006663
NI3246   NI        0.600083    0.121973    0.541982     0.004307
CU3247   CU        0.600462    0.153417    0.577838     0.006663
NI3248   NI        0.631620    0.122700    0.576027     0.004307
CU3249   CU        0.632206    0.150019    0.543194     0.006663
NI3250   NI        0.667397    0.124500    0.543524     0.004307
NI3251   NI        0.667163    0.152208    0.577863     0.004307
NI3252   NI        0.700822    0.125297    0.576295     0.004307
NI3253   NI        0.703404    0.151607    0.542726     0.004307
NI3254   NI        0.733769    0.122375    0.543670     0.004307
NI3255   NI        0.736658    0.154233    0.578003     0.004307
NI3256   NI        0.774079    0.129265    0.580262     0.004307
NI3257   NI        0.770543    0.156595    0.542415     0.004307
NI3258   NI        0.804946    0.158085    0.579295     0.004307
NI3259   NI        0.077990    0.214261    0.542833     0.004307
NI3260   NI        0.111861    0.184290    0.544952     0.004307
NI3261   NI        0.109977    0.213498    0.579392     0.004307
NI3262   NI        0.143424    0.185303    0.576221     0.004307
NI3263   NI        0.142041    0.214875    0.544088     0.004307
CU3264   CU        0.177430    0.183418    0.543628     0.006663
CU3265   CU        0.176573    0.213141    0.580608     0.006663
NI3266   NI        0.214001    0.183755    0.580112     0.004307
NI3267   NI        0.229062    0.220778    0.546859     0.004307
NI3268   NI        0.241874    0.181260    0.541332     0.004307
NI3269   NI        0.260479    0.225935    0.578163     0.004307
NI3270   NI        0.292047    0.194396    0.575671     0.004307
NI3271   NI        0.290202    0.225040    0.542337     0.004307
NI3272   NI        0.322657    0.192982    0.540496     0.004307
CU3273   CU        0.322944    0.222430    0.576144     0.006663
CU3274   CU        0.356402    0.192867    0.576677     0.006663
CU3275   CU        0.356703    0.222377    0.542606     0.006663
CU3276   CU        0.389330    0.194000    0.542585     0.006663
CU3277   CU        0.389690    0.223752    0.576201     0.006663
NI3278   NI        0.422439    0.195494    0.574622     0.004307
CU3279   CU        0.424486    0.223223    0.540274     0.006663
CU3280   CU        0.455036    0.195080    0.538817     0.006663
NI3281   NI        0.456943    0.221878    0.573237     0.004307
NI3282   NI        0.490564    0.193896    0.575239     0.004307
CU3283   CU        0.490340    0.223334    0.540516     0.006663
NI3284   NI        0.523951    0.194078    0.541642     0.004307
CU3285   CU        0.522780    0.223347    0.573450     0.006663
NI3286   NI        0.558708    0.176153    0.580400     0.004307
CU3287   CU        0.555250    0.222822    0.539307     0.006663
NI3288   NI        0.600211    0.179463    0.539447     0.004307
CU3289   CU        0.588533    0.226105    0.574258     0.006663
NI3290   NI        0.636604    0.179856    0.573220     0.004307
NI3291   NI        0.634191    0.207358    0.540312     0.004307
NI3292   NI        0.672144    0.182568    0.543233     0.004307
CU3293   CU        0.655043    0.225444    0.574373     0.006663
NI3294   NI        0.701095    0.181759    0.578378     0.004307
NI3295   NI        0.705567    0.210009    0.540443     0.004307
NI3296   NI        0.736234    0.182291    0.539294     0.004307
NI3297   NI        0.737242    0.211623    0.578172     0.004307
NI3298   NI        0.769834    0.183480    0.576057     0.004307
CU3299   CU        0.770685    0.213899    0.542574     0.006663
NI3300   NI        0.804470    0.184730    0.542408     0.004307
CU3301   CU        0.804342    0.212841    0.576404     0.006663
CU3302   CU        0.838194    0.214579    0.542355     0.006663
NI3303   NI        0.043337    0.246288    0.543063     0.004307
NI3304   NI        0.050329    0.274072    0.583124     0.004307
NI3305   NI        0.078002    0.242131    0.574481     0.004307
NI3306   NI        0.077172    0.274057    0.544759     0.004307
CU3307   CU        0.109405    0.241701    0.542957     0.006663
NI3308   NI        0.106945    0.274669    0.579487     0.004307
CU3309   CU        0.140228    0.243907    0.577835     0.006663
NI3310   NI        0.140128    0.274539    0.546120     0.004307
NI3311   NI        0.173951    0.242260    0.546750     0.004307
NI3312   NI        0.171719    0.274212    0.580397     0.004307
CU3313   CU        0.208129    0.243806    0.581398     0.006663
CU3314   CU        0.224923    0.282050    0.541074     0.006663
NI3315   NI        0.256701    0.252425    0.540136     0.004307
NI3316   NI        0.256983    0.281053    0.574610     0.004307
CU3317   CU        0.292102    0.255023    0.573232     0.006663
NI3318   NI        0.289090    0.281764    0.539361     0.004307
CU3319   CU        0.323970    0.252339    0.539865     0.006663
CU3320   CU        0.322163    0.282945    0.572616     0.006663
NI3321   NI        0.357596    0.254773    0.574223     0.004307
CU3322   CU        0.354829    0.281795    0.539733     0.006663
CU3323   CU        0.387125    0.253706    0.541558     0.006663
CU3324   CU        0.389918    0.282941    0.575063     0.006663
CU3325   CU        0.423103    0.252793    0.574567     0.006663
CU3326   CU        0.421259    0.279663    0.538509     0.006663
CU3327   CU        0.458338    0.250438    0.537784     0.006663
NI3328   NI        0.454951    0.280719    0.571954     0.004307
CU3329   CU        0.490236    0.252879    0.573426     0.006663
CU3330   CU        0.488409    0.280767    0.541659     0.006663
CU3331   CU        0.523555    0.252178    0.537341     0.006663
CU3332   CU        0.523699    0.281518    0.572495     0.006663
CU3333   CU        0.555950    0.251270    0.572321     0.006663
CU3334   CU        0.557389    0.284334    0.541884     0.006663
CU3335   CU        0.588657    0.254805    0.542852     0.006663
CU3336   CU        0.589886    0.283975    0.574795     0.006663
NI3337   NI        0.622977    0.253803    0.572421     0.004307
CU3338   CU        0.620510    0.283427    0.539035     0.006663
NI3339   NI        0.653296    0.254946    0.538585     0.004307
CU3340   CU        0.655866    0.283958    0.574130     0.006663
NI3341   NI        0.703579    0.237269    0.573858     0.004307
NI3342   NI        0.701577    0.271056    0.540059     0.004307
CU3343   CU        0.736188    0.242783    0.541011     0.006663
NI3344   NI        0.727884    0.285225    0.576100     0.004307
NI3345   NI        0.769335    0.242006    0.576812     0.004307
NI3346   NI        0.773168    0.271121    0.543604     0.004307
NI3347   NI        0.804718    0.241339    0.544608     0.004307
CU3348   CU        0.805714    0.274244    0.576085     0.006663
NI3349   NI        0.836856    0.245346    0.578639     0.004307
NI3350   NI        0.837018    0.273334    0.544478     0.004307
NI3351   NI        0.868298    0.244489    0.543969     0.004307
NI3352   NI        0.867187    0.274620    0.579901     0.004307
NI3353   NI        0.018023    0.335105    0.543523     0.004307
CU3354   CU        0.045855    0.304301    0.545319     0.006663
NI3355   NI        0.044272    0.337862    0.580458     0.004307
NI3356   NI        0.076076    0.306524    0.581007     0.004307
NI3357   NI        0.073820    0.336548    0.544880     0.004307
CU3358   CU        0.107127    0.301660    0.544395     0.006663
NI3359   NI        0.107544    0.334397    0.579654     0.004307
CU3360   CU        0.138191    0.303666    0.581388     0.006663
NI3361   NI        0.134768    0.333576    0.543456     0.004307
NI3362   NI        0.191750    0.309329    0.541505     0.004307
NI3363   NI        0.191929    0.344107    0.572147     0.004307
CU3364   CU        0.223830    0.310569    0.574977     0.006663
CU3365   CU        0.224342    0.338475    0.541616     0.006663
CU3366   CU        0.257092    0.312124    0.540806     0.006663
CU3367   CU        0.255081    0.341383    0.574440     0.006663
NI3368   NI        0.285539    0.310283    0.575369     0.004307
CU3369   CU        0.287559    0.341491    0.541662     0.006663
CU3370   CU        0.322728    0.313606    0.541427     0.006663
CU3371   CU        0.322796    0.342233    0.573991     0.006663
NI3372   NI        0.355467    0.311387    0.574799     0.004307
CU3373   CU        0.356800    0.342691    0.539820     0.006663
CU3374   CU        0.389180    0.311946    0.540301     0.006663
CU3375   CU        0.389334    0.342451    0.573323     0.006663
CU3376   CU        0.423198    0.312912    0.572100     0.006663
NI3377   NI        0.421449    0.341356    0.538903     0.004307
CU3378   CU        0.454851    0.309181    0.540777     0.006663
CU3379   CU        0.457322    0.341407    0.569805     0.006663
NI3380   NI        0.490762    0.309621    0.572161     0.004307
NI3381   NI        0.488362    0.340873    0.540242     0.004307
CU3382   CU        0.522338    0.312085    0.538613     0.006663
CU3383   CU        0.521113    0.340221    0.573097     0.006663
CU3384   CU        0.554454    0.310671    0.575157     0.006663
CU3385   CU        0.555234    0.341466    0.541384     0.006663
CU3386   CU        0.589005    0.312930    0.539634     0.006663
CU3387   CU        0.589850    0.339950    0.574757     0.006663
NI3388   NI        0.622112    0.310919    0.574901     0.004307
CU3389   CU        0.621975    0.340759    0.539498     0.006663
CU3390   CU        0.654230    0.312739    0.541503     0.006663
CU3391   CU        0.659407    0.341161    0.575369     0.006663
NI3392   NI        0.691203    0.312685    0.577427     0.004307
CU3393   CU        0.690015    0.341647    0.541239     0.006663
NI3394   NI        0.719671    0.311311    0.538040     0.004307
NI3395   NI        0.724783    0.339298    0.576997     0.004307
CU3396   CU        0.760419    0.314244    0.576751     0.006663
CU3397   CU        0.775613    0.336596    0.544076     0.006663
NI3398   NI        0.802836    0.304865    0.542944     0.004307
NI3399   NI        0.805462    0.334129    0.576685     0.004307
NI3400   NI        0.834850    0.304608    0.576768     0.004307
NI3401   NI        0.835945    0.335741    0.542952     0.004307
NI3402   NI        0.866121    0.304978    0.542729     0.004307
NI3403   NI        0.867874    0.333985    0.578951     0.004307
NI3404   NI        0.897476    0.337392    0.541354     0.004307
NI3405   NI        0.014263    0.369241    0.578625     0.004307
NI3406   NI        0.013062    0.397480    0.547233     0.004307
CU3407   CU        0.045218    0.366441    0.545483     0.006663
NI3408   NI        0.046413    0.396637    0.579711     0.004307
CU3409   CU        0.076819    0.366984    0.579974     0.006663
NI3410   NI        0.075398    0.397006    0.543945     0.004307
NI3411   NI        0.105368    0.366369    0.541132     0.004307
CU3412   CU        0.103907    0.398408    0.578616     0.006663
NI3413   NI        0.160445    0.375187    0.570068     0.004307
NI3414   NI        0.140479    0.399456    0.542812     0.004307
NI3415   NI        0.192410    0.371504    0.541542     0.004307
NI3416   NI        0.191215    0.402487    0.573902     0.004307
CU3417   CU        0.222761    0.372389    0.575594     0.006663
CU3418   CU        0.221356    0.400726    0.541646     0.006663
CU3419   CU        0.254387    0.370404    0.540087     0.006663
CU3420   CU        0.254508    0.399538    0.574533     0.006663
CU3421   CU        0.287505    0.369884    0.573555     0.006663
NI3422   NI        0.288891    0.399859    0.541187     0.004307
CU3423   CU        0.322490    0.371049    0.541043     0.006663
CU3424   CU        0.322929    0.399414    0.574709     0.006663
CU3425   CU        0.356326    0.369669    0.574525     0.006663
CU3426   CU        0.357285    0.399135    0.540805     0.006663
CU3427   CU        0.389553    0.371000    0.541749     0.006663
CU3428   CU        0.389149    0.400539    0.573579     0.006663
CU3429   CU        0.423759    0.372363    0.572127     0.006663
CU3430   CU        0.421254    0.400801    0.539514     0.006663
CU3431   CU        0.454075    0.372185    0.539188     0.006663
CU3432   CU        0.456962    0.401048    0.572532     0.006663
CU3433   CU        0.489667    0.372518    0.572924     0.006663
CU3434   CU        0.490456    0.399653    0.539528     0.006663
CU3435   CU        0.524103    0.369251    0.540480     0.006663
CU3436   CU        0.522772    0.399454    0.571710     0.006663
CU3437   CU        0.556098    0.369999    0.574114     0.006663
CU3438   CU        0.559395    0.398850    0.540278     0.006663
CU3439   CU        0.590235    0.369516    0.541601     0.006663
CU3440   CU        0.592157    0.398940    0.574987     0.006663
CU3441   CU        0.624124    0.368979    0.574680     0.006663
CU3442   CU        0.622817    0.400354    0.539592     0.006663
CU3443   CU        0.657151    0.368558    0.542421     0.006663
CU3444   CU        0.659459    0.398943    0.573638     0.006663
CU3445   CU        0.691583    0.369197    0.573956     0.006663
NI3446   NI        0.690851    0.399547    0.540692     0.004307
CU3447   CU        0.723274    0.369487    0.537831     0.006663
NI3448   NI        0.724142    0.399925    0.575713     0.004307
CU3449   CU        0.754498    0.372114    0.576988     0.006663
NI3450   NI        0.774532    0.398014    0.540438     0.004307
NI3451   NI        0.806230    0.366082    0.541179     0.004307
NI3452   NI        0.808965    0.396765    0.578548     0.004307
CU3453   CU        0.839359    0.365717    0.574266     0.006663
NI3454   NI        0.836411    0.397281    0.542947     0.004307
NI3455   NI        0.868344    0.368190    0.540843     0.004307
CU3456   CU        0.869716    0.398003    0.575444     0.006663
NI3457   NI        0.897223    0.365690    0.578409     0.004307
NI3458   NI        0.899205    0.399016    0.538841     0.004307
NI3459   NI        0.014494    0.425566    0.578755     0.004307
NI3460   NI        0.010747    0.456048    0.542260     0.004307
CU3461   CU        0.042255    0.426541    0.543304     0.006663
NI3462   NI        0.041837    0.457564    0.576143     0.004307
NI3463   NI        0.073029    0.429194    0.577158     0.004307
NI3464   NI        0.074315    0.457591    0.543903     0.004307
CU3465   CU        0.105299    0.427410    0.544421     0.006663
CU3466   CU        0.123756    0.461377    0.570512     0.006663
NI3467   NI        0.158870    0.432559    0.576881     0.004307
CU3468   CU        0.157382    0.462109    0.538927     0.006663
CU3469   CU        0.189410    0.431559    0.540432     0.006663
NI3470   NI        0.189914    0.463695    0.577011     0.004307
CU3471   CU        0.220323    0.430456    0.575128     0.006663
CU3472   CU        0.219561    0.459514    0.540491     0.006663
NI3473   NI        0.255654    0.431118    0.542900     0.004307
NI3474   NI        0.254092    0.459395    0.574405     0.004307
CU3475   CU        0.290612    0.429514    0.573086     0.006663
NI3476   NI        0.287789    0.459356    0.540948     0.004307
CU3477   CU        0.323330    0.428195    0.541575     0.006663
CU3478   CU        0.322281    0.459034    0.573447     0.006663
CU3479   CU        0.354849    0.431021    0.574119     0.006663
CU3480   CU        0.358181    0.459269    0.538852     0.006663
CU3481   CU        0.388267    0.429742    0.541899     0.006663
NI3482   NI        0.388503    0.459942    0.574614     0.004307
CU3483   CU        0.422748    0.430259    0.574169     0.006663
CU3484   CU        0.423877    0.458545    0.539884     0.006663
CU3485   CU        0.453949    0.429846    0.539901     0.006663
CU3486   CU        0.457291    0.459872    0.572753     0.006663
CU3487   CU        0.489736    0.431188    0.572526     0.006663
CU3488   CU        0.490641    0.461048    0.539243     0.006663
CU3489   CU        0.522642    0.430935    0.542192     0.006663
CU3490   CU        0.522944    0.459933    0.574747     0.006663
CU3491   CU        0.557584    0.431352    0.574175     0.006663
CU3492   CU        0.556647    0.460109    0.541044     0.006663
CU3493   CU        0.592473    0.429588    0.541255     0.006663
CU3494   CU        0.590542    0.461063    0.571890     0.006663
CU3495   CU        0.626114    0.430705    0.574534     0.006663
CU3496   CU        0.625692    0.457212    0.540066     0.006663
CU3497   CU        0.657085    0.429136    0.541564     0.006663
CU3498   CU        0.659631    0.459696    0.572996     0.006663
CU3499   CU        0.691443    0.429739    0.575695     0.006663
CU3500   CU        0.693039    0.458617    0.540838     0.006663
CU3501   CU        0.724479    0.431059    0.542152     0.006663
CU3502   CU        0.725356    0.459869    0.577484     0.006663
NI3503   NI        0.756001    0.430727    0.577771     0.004307
NI3504   NI        0.777180    0.459261    0.539947     0.004307
NI3505   NI        0.806657    0.430211    0.540236     0.004307
NI3506   NI        0.807702    0.459822    0.574017     0.004307
NI3507   NI        0.836458    0.426923    0.576453     0.004307
NI3508   NI        0.838018    0.459066    0.542242     0.004307
NI3509   NI        0.868837    0.428379    0.542832     0.004307
CU3510   CU        0.869191    0.460502    0.572768     0.006663
NI3511   NI        0.902657    0.425840    0.573474     0.004307
NI3512   NI        0.899886    0.459822    0.541658     0.004307
NI3513   NI        0.017282    0.494257    0.583005     0.004307
NI3514   NI        0.022260    0.523511    0.546977     0.004307
CU3515   CU        0.038359    0.486023    0.539512     0.006663
NI3516   NI        0.048547    0.524160    0.583083     0.004307
NI3517   NI        0.067017    0.489327    0.573485     0.004307
CU3518   CU        0.067956    0.518319    0.539236     0.006663
NI3519   NI        0.101090    0.493682    0.543843     0.004307
NI3520   NI        0.124381    0.519715    0.573566     0.004307
NI3521   NI        0.157762    0.492366    0.576555     0.004307
NI3522   NI        0.155963    0.518240    0.540249     0.004307
NI3523   NI        0.189552    0.489603    0.541021     0.004307
CU3524   CU        0.190970    0.520151    0.575678     0.006663
CU3525   CU        0.222761    0.489647    0.578303     0.006663
NI3526   NI        0.221354    0.518253    0.542363     0.004307
CU3527   CU        0.252557    0.488283    0.539984     0.006663
CU3528   CU        0.252814    0.518869    0.573138     0.006663
NI3529   NI        0.285968    0.488280    0.573390     0.004307
CU3530   CU        0.285452    0.516965    0.540134     0.006663
CU3531   CU        0.321901    0.488516    0.540449     0.006663
CU3532   CU        0.321936    0.517585    0.572234     0.006663
CU3533   CU        0.354914    0.489310    0.571486     0.006663
CU3534   CU        0.357968    0.519170    0.540690     0.006663
CU3535   CU        0.392003    0.487508    0.540330     0.006663
CU3536   CU        0.390658    0.517812    0.572742     0.006663
CU3537   CU        0.421842    0.488478    0.574461     0.006663
CU3538   CU        0.422220    0.518445    0.540779     0.006663
CU3539   CU        0.456537    0.489142    0.540161     0.006663
CU3540   CU        0.454421    0.517819    0.574723     0.006663
CU3541   CU        0.489600    0.489302    0.572536     0.006663
CU3542   CU        0.491562    0.517606    0.539093     0.006663
CU3543   CU        0.523895    0.488579    0.540358     0.006663
CU3544   CU        0.522160    0.520224    0.574201     0.006663
NI3545   NI        0.556602    0.488883    0.573997     0.004307
CU3546   CU        0.557502    0.518941    0.539388     0.006663
CU3547   CU        0.590707    0.488063    0.541855     0.006663
CU3548   CU        0.590146    0.518724    0.572756     0.006663
NI3549   NI        0.625688    0.488625    0.574049     0.004307
CU3550   CU        0.624806    0.519428    0.540254     0.006663
CU3551   CU        0.656029    0.490209    0.540554     0.006663
CU3552   CU        0.657300    0.518155    0.573613     0.006663
CU3553   CU        0.693543    0.487570    0.574166     0.006663
CU3554   CU        0.693275    0.518958    0.540320     0.006663
NI3555   NI        0.725196    0.489596    0.539072     0.004307
NI3556   NI        0.725004    0.517051    0.576797     0.004307
NI3557   NI        0.757426    0.489726    0.577104     0.004307
NI3558   NI        0.779184    0.517614    0.548260     0.004307
NI3559   NI        0.809231    0.489857    0.539796     0.004307
CU3560   CU        0.809591    0.524844    0.579034     0.006663
CU3561   CU        0.838039    0.490473    0.574881     0.006663
NI3562   NI        0.836418    0.522343    0.542010     0.004307
CU3563   CU        0.868540    0.491922    0.539318     0.006663
CU3564   CU        0.869174    0.521745    0.577626     0.006663
NI3565   NI        0.901294    0.491745    0.569975     0.004307
NI3566   NI        0.899090    0.521620    0.542331     0.004307
CU3567   CU        0.052745    0.555278    0.551937     0.006663
NI3568   NI        0.047859    0.585184    0.582713     0.004307
CU3569   CU        0.078664    0.556832    0.585631     0.006663
NI3570   NI        0.079513    0.585437    0.546201     0.004307
NI3571   NI        0.099182    0.549877    0.545083     0.004307
NI3572   NI        0.111787    0.586203    0.580806     0.004307
CU3573   CU        0.144889    0.556101    0.585963     0.006663
NI3574   NI        0.147792    0.586265    0.554557     0.004307
CU3575   CU        0.191715    0.550408    0.540558     0.006663
NI3576   NI        0.188549    0.577019    0.575519     0.004307
NI3577   NI        0.222128    0.548695    0.575477     0.004307
NI3578   NI        0.223128    0.578249    0.542796     0.004307
CU3579   CU        0.255162    0.550022    0.542067     0.006663
CU3580   CU        0.256487    0.579960    0.574863     0.006663
NI3581   NI        0.287282    0.547666    0.574756     0.004307
CU3582   CU        0.288971    0.578926    0.540159     0.006663
CU3583   CU        0.319616    0.547665    0.541961     0.006663
NI3584   NI        0.323560    0.574784    0.573629     0.004307
NI3585   NI        0.356896    0.547926    0.573059     0.004307
NI3586   NI        0.356476    0.575828    0.541392     0.004307
CU3587   CU        0.389309    0.547386    0.537048     0.006663
CU3588   CU        0.391489    0.578649    0.572783     0.006663
CU3589   CU        0.423692    0.546053    0.572706     0.006663
CU3590   CU        0.423884    0.576789    0.541503     0.006663
CU3591   CU        0.457803    0.545201    0.541456     0.006663
CU3592   CU        0.456594    0.577029    0.573372     0.006663
CU3593   CU        0.489077    0.548740    0.575748     0.006663
NI3594   NI        0.488399    0.579198    0.539391     0.004307
CU3595   CU        0.520914    0.551606    0.543634     0.006663
CU3596   CU        0.523117    0.579986    0.574730     0.006663
CU3597   CU        0.556454    0.549247    0.573082     0.006663
CU3598   CU        0.557170    0.579276    0.539302     0.006663
CU3599   CU        0.591301    0.548890    0.540062     0.006663
CU3600   CU        0.589749    0.578716    0.573762     0.006663
CU3601   CU        0.623747    0.548205    0.573739     0.006663
CU3602   CU        0.624013    0.578824    0.541211     0.006663
CU3603   CU        0.657690    0.549860    0.540338     0.006663
NI3604   NI        0.658177    0.577976    0.573352     0.004307
CU3605   CU        0.693119    0.547200    0.574830     0.006663
CU3606   CU        0.691359    0.577517    0.539976     0.006663
NI3607   NI        0.724409    0.549141    0.539151     0.004307
NI3608   NI        0.721790    0.577067    0.573267     0.004307
NI3609   NI        0.776309    0.552622    0.577763     0.004307
NI3610   NI        0.775523    0.584728    0.544966     0.004307
NI3611   NI        0.804185    0.553639    0.544389     0.004307
CU3612   CU        0.803741    0.584620    0.578357     0.006663
NI3613   NI        0.838949    0.556176    0.578958     0.004307
CU3614   CU        0.838349    0.585504    0.544642     0.006663
NI3615   NI        0.867351    0.553270    0.543949     0.004307
CU3616   CU        0.869776    0.586357    0.578623     0.006663
NI3617   NI        0.047419    0.612228    0.548061     0.004307
NI3618   NI        0.079634    0.615892    0.577645     0.004307
NI3619   NI        0.078713    0.644359    0.542489     0.004307
CU3620   CU        0.109356    0.616121    0.543139     0.006663
NI3621   NI        0.113093    0.646423    0.578153     0.004307
CU3622   CU        0.142831    0.617257    0.581439     0.006663
NI3623   NI        0.142283    0.646316    0.542931     0.004307
NI3624   NI        0.187499    0.604516    0.538956     0.004307
NI3625   NI        0.178035    0.644195    0.580232     0.004307
NI3626   NI        0.222508    0.608416    0.573814     0.004307
NI3627   NI        0.225147    0.635400    0.542016     0.004307
CU3628   CU        0.257068    0.609010    0.539942     0.006663
NI3629   NI        0.258397    0.636364    0.573799     0.004307
CU3630   CU        0.289560    0.606919    0.572346     0.006663
CU3631   CU        0.289267    0.636313    0.539890     0.006663
CU3632   CU        0.322711    0.605953    0.537765     0.006663
CU3633   CU        0.323859    0.633275    0.570407     0.006663
CU3634   CU        0.358352    0.604554    0.571842     0.006663
CU3635   CU        0.358162    0.634095    0.539338     0.006663
CU3636   CU        0.389799    0.605506    0.537372     0.006663
CU3637   CU        0.391607    0.632415    0.572914     0.006663
CU3638   CU        0.425141    0.605321    0.572724     0.006663
CU3639   CU        0.424777    0.634680    0.536760     0.006663
CU3640   CU        0.456339    0.606656    0.538853     0.006663
CU3641   CU        0.456862    0.633800    0.572580     0.006663
NI3642   NI        0.490378    0.607752    0.571607     0.004307
CU3643   CU        0.491320    0.637687    0.538306     0.006663
NI3644   NI        0.525160    0.609174    0.540812     0.004307
CU3645   CU        0.521404    0.637492    0.571736     0.006663
CU3646   CU        0.554337    0.608596    0.573423     0.006663
NI3647   NI        0.555988    0.637728    0.538979     0.004307
CU3648   CU        0.588945    0.606930    0.540591     0.006663
NI3649   NI        0.588717    0.638570    0.575802     0.004307
NI3650   NI        0.623040    0.607563    0.573563     0.004307
NI3651   NI        0.621602    0.636278    0.542986     0.004307
CU3652   CU        0.658571    0.606021    0.542297     0.006663
NI3653   NI        0.657943    0.635749    0.575740     0.004307
NI3654   NI        0.691791    0.608012    0.573978     0.004307
CU3655   CU        0.703816    0.646578    0.548139     0.006663
NI3656   NI        0.721167    0.609762    0.537898     0.004307
NI3657   NI        0.736414    0.645464    0.581916     0.004307
NI3658   NI        0.772792    0.616393    0.579000     0.004307
CU3659   CU        0.772543    0.645658    0.547845     0.006663
NI3660   NI        0.804056    0.616164    0.545762     0.004307
NI3661   NI        0.804122    0.646867    0.579790     0.004307
NI3662   NI        0.836600    0.615733    0.579042     0.004307
NI3663   NI        0.833998    0.643927    0.540090     0.004307
NI3664   NI        0.868534    0.614572    0.542453     0.004307
NI3665   NI        0.111231    0.676305    0.543507     0.004307
NI3666   NI        0.113783    0.702044    0.578194     0.004307
NI3667   NI        0.148086    0.675498    0.576404     0.004307
CU3668   CU        0.143857    0.703430    0.543622     0.006663
CU3669   CU        0.178927    0.674080    0.541737     0.006663
NI3670   NI        0.179680    0.704042    0.575480     0.004307
CU3671   CU        0.212187    0.674864    0.580652     0.006663
CU3672   CU        0.211404    0.706487    0.541608     0.006663
CU3673   CU        0.259055    0.666584    0.542214     0.006663
NI3674   NI        0.243851    0.706899    0.582254     0.004307
NI3675   NI        0.291619    0.664884    0.571040     0.004307
NI3676   NI        0.294242    0.693271    0.540923     0.004307
NI3677   NI        0.325229    0.663791    0.538951     0.004307
NI3678   NI        0.327347    0.691754    0.570286     0.004307
NI3679   NI        0.362158    0.662036    0.570178     0.004307
CU3680   CU        0.359351    0.689953    0.538310     0.006663
NI3681   NI        0.392480    0.661309    0.537141     0.004307
NI3682   NI        0.398379    0.690945    0.567847     0.004307
NI3683   NI        0.424156    0.661250    0.572534     0.004307
NI3684   NI        0.421006    0.714154    0.540002     0.004307
CU3685   CU        0.455516    0.664007    0.538047     0.006663
NI3686   NI        0.450422    0.693215    0.567921     0.004307
NI3687   NI        0.486848    0.664669    0.569518     0.004307
NI3688   NI        0.488421    0.716325    0.541746     0.004307
CU3689   CU        0.521563    0.665824    0.535970     0.006663
NI3690   NI        0.531056    0.714034    0.582122     0.004307
NI3691   NI        0.563461    0.684444    0.581025     0.004307
NI3692   NI        0.563450    0.713957    0.547740     0.004307
CU3693   CU        0.590483    0.664895    0.543464     0.006663
NI3694   NI        0.595930    0.712044    0.578727     0.004307
NI3695   NI        0.625959    0.665868    0.576363     0.004307
NI3696   NI        0.629146    0.711518    0.542270     0.004307
NI3697   NI        0.658524    0.663047    0.542882     0.004307
CU3698   CU        0.667699    0.707747    0.580381     0.006663
NI3699   NI        0.699779    0.677279    0.580472     0.004307
NI3700   NI        0.702475    0.706396    0.546193     0.004307
CU3701   CU        0.737835    0.676182    0.546220     0.006663
CU3702   CU        0.733163    0.705170    0.580824     0.006663
NI3703   NI        0.768556    0.673803    0.581367     0.004307
NI3704   NI        0.771350    0.702329    0.541271     0.004307
NI3705   NI        0.802649    0.674712    0.543854     0.004307
NI3706   NI        0.797015    0.704116    0.577600     0.004307
NI3707   NI        0.146333    0.732953    0.578140     0.004307
NI3708   NI        0.177172    0.731962    0.542956     0.004307
NI3709   NI        0.210612    0.734315    0.579637     0.004307
NI3710   NI        0.208832    0.760845    0.542556     0.004307
NI3711   NI        0.243080    0.736919    0.543834     0.004307
NI3712   NI        0.243747    0.765570    0.577651     0.004307
NI3713   NI        0.277224    0.737421    0.580616     0.004307
NI3714   NI        0.278083    0.765756    0.543663     0.004307
NI3715   NI        0.319669    0.751037    0.541627     0.004307
NI3716   NI        0.310961    0.766922    0.581564     0.004307
CU3717   CU        0.351694    0.752426    0.573444     0.006663
NI3718   NI        0.355050    0.776781    0.539784     0.004307
CU3719   CU        0.386910    0.746007    0.541941     0.006663
NI3720   NI        0.390578    0.777272    0.573322     0.004307
CU3721   CU        0.421602    0.744450    0.575447     0.006663
CU3722   CU        0.421707    0.771044    0.540043     0.006663
NI3723   NI        0.455163    0.743276    0.541195     0.004307
NI3724   NI        0.457000    0.771535    0.572768     0.004307
NI3725   NI        0.494162    0.740619    0.578189     0.004307
CU3726   CU        0.492526    0.767339    0.541408     0.006663
NI3727   NI        0.525999    0.741144    0.545646     0.004307
NI3728   NI        0.526010    0.770471    0.577845     0.004307
CU3729   CU        0.563100    0.740219    0.580355     0.006663
CU3730   CU        0.562994    0.767511    0.544468     0.006663
NI3731   NI        0.596612    0.739851    0.544888     0.004307
NI3732   NI        0.596516    0.767128    0.580489     0.004307
CU3733   CU        0.631892    0.737712    0.577345     0.006663
NI3734   NI        0.633131    0.767832    0.545122     0.004307
CU3735   CU        0.667698    0.735975    0.543123     0.006663
NI3736   NI        0.667704    0.761754    0.577005     0.004307
CU3737   CU        0.702746    0.737081    0.576115     0.006663
NI3738   NI        0.702157    0.762978    0.541190     0.004307
CU3739   CU        0.734907    0.735225    0.544173     0.006663
NI3740   NI        0.765988    0.732523    0.581481     0.004307
NI3741   NI        0.246850    0.794542    0.542579     0.004307
NI3742   NI        0.277581    0.792991    0.579980     0.004307
NI3743   NI        0.314025    0.793701    0.546416     0.004307
NI3744   NI        0.348792    0.792002    0.583768     0.004307
NI3745   NI        0.351043    0.817868    0.549743     0.004307
CU3746   CU        0.391150    0.802785    0.538127     0.006663
NI3747   NI        0.384275    0.817469    0.585875     0.004307
NI3748   NI        0.425735    0.800791    0.571847     0.004307
NI3749   NI        0.425023    0.830501    0.538912     0.004307
CU3750   CU        0.457601    0.799976    0.540497     0.006663
NI3751   NI        0.457744    0.829566    0.571929     0.004307
NI3752   NI        0.491322    0.799596    0.572160     0.004307
NI3753   NI        0.494668    0.824375    0.536846     0.004307
NI3754   NI        0.525550    0.794787    0.541403     0.004307
NI3755   NI        0.527257    0.826106    0.571233     0.004307
CU3756   CU        0.561218    0.794182    0.575943     0.006663
NI3757   NI        0.561861    0.819763    0.541391     0.004307
NI3758   NI        0.596831    0.791668    0.541720     0.004307
NI3759   NI        0.631721    0.792279    0.580518     0.004307
NI3760   NI        0.667264    0.792864    0.545584     0.004307
NI3761   NI        0.425817    0.043058    0.618509     0.004307
NI3762   NI        0.494523    0.039956    0.613177     0.004307
CU3763   CU        0.212679    0.097051    0.609715     0.006663
NI3764   NI        0.270975    0.079805    0.651891     0.004307
NI3765   NI        0.282130    0.095910    0.611571     0.004307
NI3766   NI        0.311315    0.064088    0.613700     0.004307
NI3767   NI        0.313729    0.093717    0.645709     0.004307
NI3768   NI        0.343879    0.062524    0.649494     0.004307
CU3769   CU        0.349138    0.090363    0.614673     0.006663
CU3770   CU        0.388135    0.067580    0.610236     0.006663
CU3771   CU        0.379633    0.087612    0.648212     0.006663
CU3772   CU        0.424066    0.069768    0.652575     0.006663
NI3773   NI        0.422974    0.092138    0.613152     0.004307
NI3774   NI        0.460498    0.067209    0.615455     0.004307
CU3775   CU        0.461304    0.095135    0.649511     0.006663
NI3776   NI        0.494830    0.068052    0.651239     0.004307
NI3777   NI        0.493853    0.096051    0.611564     0.004307
NI3778   NI        0.527660    0.069390    0.614965     0.004307
CU3779   CU        0.526944    0.094018    0.650919     0.006663
NI3780   NI        0.559494    0.067727    0.649325     0.004307
NI3781   NI        0.565482    0.094847    0.615142     0.004307
NI3782   NI        0.599677    0.067102    0.611387     0.004307
NI3783   NI        0.598752    0.096512    0.647237     0.004307
NI3784   NI        0.632758    0.096299    0.610975     0.004307
NI3785   NI        0.663751    0.096769    0.648362     0.004307
NI3786   NI        0.700264    0.096341    0.608735     0.004307
NI3787   NI        0.145260    0.156597    0.612158     0.004307
NI3788   NI        0.179869    0.126850    0.611138     0.004307
CU3789   CU        0.180914    0.154384    0.644330     0.006663
NI3790   NI        0.213797    0.125925    0.642192     0.004307
NI3791   NI        0.213363    0.154365    0.612970     0.004307
NI3792   NI        0.247304    0.122794    0.611649     0.004307
CU3793   CU        0.246992    0.153854    0.648350     0.006663
NI3794   NI        0.280694    0.124071    0.648187     0.004307
NI3795   NI        0.276704    0.152817    0.615035     0.004307
NI3796   NI        0.326379    0.129673    0.587770     0.004307
NI3797   NI        0.314514    0.153775    0.652917     0.004307
NI3798   NI        0.350362    0.117142    0.648957     0.004307
NI3799   NI        0.357816    0.162496    0.609637     0.004307
NI3800   NI        0.386240    0.116329    0.616297     0.004307
NI3801   NI        0.390586    0.164188    0.639733     0.004307
NI3802   NI        0.423775    0.134718    0.636190     0.004307
CU3803   CU        0.423547    0.165203    0.605415     0.006663
NI3804   NI        0.458411    0.121129    0.612025     0.004307
NI3805   NI        0.455379    0.165365    0.641305     0.004307
CU3806   CU        0.494405    0.122106    0.650537     0.006663
NI3807   NI        0.486980    0.162879    0.607523     0.004307
NI3808   NI        0.531687    0.120457    0.612893     0.004307
NI3809   NI        0.526915    0.148962    0.647307     0.004307
NI3810   NI        0.562664    0.124437    0.649725     0.004307
NI3811   NI        0.561120    0.148199    0.613938     0.004307
NI3812   NI        0.597914    0.124418    0.613150     0.004307
CU3813   CU        0.599970    0.152122    0.648753     0.006663
NI3814   NI        0.632128    0.124914    0.646890     0.004307
CU3815   CU        0.632913    0.152942    0.614254     0.006663
NI3816   NI        0.665688    0.123878    0.610288     0.004307
NI3817   NI        0.666714    0.153733    0.646574     0.004307
NI3818   NI        0.699487    0.125238    0.642960     0.004307
CU3819   CU        0.700804    0.154002    0.610235     0.006663
NI3820   NI        0.733856    0.125757    0.613912     0.004307
NI3821   NI        0.732910    0.154900    0.643040     0.004307
NI3822   NI        0.769943    0.157028    0.612975     0.004307
NI3823   NI        0.077745    0.212783    0.613878     0.004307
NI3824   NI        0.110003    0.185326    0.615383     0.004307
NI3825   NI        0.111541    0.213027    0.648505     0.004307
NI3826   NI        0.144824    0.185232    0.645490     0.004307
CU3827   CU        0.141721    0.213812    0.613016     0.006663
NI3828   NI        0.180142    0.184839    0.611570     0.004307
NI3829   NI        0.175102    0.215332    0.646679     0.004307
NI3830   NI        0.214484    0.183628    0.647631     0.004307
NI3831   NI        0.211909    0.212240    0.614965     0.004307
NI3832   NI        0.246049    0.181841    0.614718     0.004307
NI3833   NI        0.247468    0.212578    0.650407     0.004307
CU3834   CU        0.279517    0.183872    0.651066     0.006663
NI3835   NI        0.284002    0.214603    0.616263     0.004307
NI3836   NI        0.326180    0.193500    0.610326     0.004307
NI3837   NI        0.316052    0.211012    0.651102     0.004307
NI3838   NI        0.361130    0.192652    0.639882     0.004307
CU3839   CU        0.357676    0.222629    0.606822     0.006663
NI3840   NI        0.391617    0.194105    0.606160     0.004307
NI3841   NI        0.390406    0.223318    0.641471     0.004307
NI3842   NI        0.423899    0.193831    0.639198     0.004307
NI3843   NI        0.424348    0.221998    0.607430     0.004307
NI3844   NI        0.458442    0.192720    0.609877     0.004307
CU3845   CU        0.456672    0.223809    0.640399     0.006663
NI3846   NI        0.490562    0.193206    0.643179     0.004307
CU3847   CU        0.490178    0.221312    0.607698     0.006663
NI3848   NI        0.527416    0.177920    0.612036     0.004307
NI3849   NI        0.523692    0.224525    0.641625     0.004307
NI3850   NI        0.554873    0.196397    0.639893     0.004307
NI3851   NI        0.557785    0.224546    0.608003     0.004307
NI3852   NI        0.588896    0.195496    0.607889     0.004307
NI3853   NI        0.589581    0.225304    0.639313     0.004307
NI3854   NI        0.635148    0.180487    0.648868     0.004307
NI3855   NI        0.622183    0.224026    0.607866     0.004307
NI3856   NI        0.666090    0.181675    0.611033     0.004307
NI3857   NI        0.666567    0.210508    0.649489     0.004307
CU3858   CU        0.699800    0.185654    0.648379     0.006663
CU3859   CU        0.701971    0.210987    0.613227     0.006663
NI3860   NI        0.734246    0.183162    0.610777     0.004307
CU3861   CU        0.735160    0.213518    0.647876     0.006663
CU3862   CU        0.766663    0.182911    0.647923     0.006663
CU3863   CU        0.768616    0.213949    0.612900     0.006663
NI3864   NI        0.802236    0.185451    0.610770     0.004307
NI3865   NI        0.803154    0.211427    0.645926     0.004307
NI3866   NI        0.836830    0.213752    0.613186     0.004307
NI3867   NI        0.079724    0.246475    0.647878     0.004307
NI3868   NI        0.078419    0.276309    0.618087     0.004307
NI3869   NI        0.111078    0.245507    0.613671     0.004307
NI3870   NI        0.111603    0.276213    0.649126     0.004307
NI3871   NI        0.142607    0.243508    0.647845     0.004307
CU3872   CU        0.140644    0.274604    0.614730     0.006663
NI3873   NI        0.173837    0.242993    0.613032     0.004307
NI3874   NI        0.174654    0.272102    0.647052     0.004307
NI3875   NI        0.211802    0.240897    0.648048     0.004307
NI3876   NI        0.226294    0.280645    0.607678     0.004307
CU3877   CU        0.245902    0.242550    0.617689     0.006663
CU3878   CU        0.257152    0.280024    0.639968     0.006663
NI3879   NI        0.280091    0.243181    0.650451     0.004307
NI3880   NI        0.290989    0.284031    0.607592     0.004307
NI3881   NI        0.325200    0.253077    0.603674     0.004307
CU3882   CU        0.322190    0.283873    0.640102     0.006663
CU3883   CU        0.357905    0.251472    0.637178     0.006663
CU3884   CU        0.356484    0.283387    0.606146     0.006663
CU3885   CU        0.393018    0.251403    0.609038     0.006663
CU3886   CU        0.388761    0.282746    0.640466     0.006663
NI3887   NI        0.423319    0.252891    0.640042     0.004307
CU3888   CU        0.423440    0.281173    0.608774     0.006663
CU3889   CU        0.458433    0.252809    0.606376     0.006663
NI3890   NI        0.456819    0.280837    0.637685     0.004307
CU3891   CU        0.489853    0.251656    0.638512     0.006663
CU3892   CU        0.489637    0.280208    0.604935     0.006663
CU3893   CU        0.525356    0.251426    0.606623     0.006663
CU3894   CU        0.523316    0.284497    0.639876     0.006663
CU3895   CU        0.556028    0.252792    0.640784     0.006663
NI3896   NI        0.554196    0.283039    0.605319     0.004307
NI3897   NI        0.588188    0.253545    0.605275     0.004307
NI3898   NI        0.589333    0.283876    0.640733     0.004307
CU3899   CU        0.622053    0.253794    0.639369     0.006663
CU3900   CU        0.622528    0.283516    0.607356     0.006663
NI3901   NI        0.653197    0.253773    0.607367     0.004307
CU3902   CU        0.655652    0.283185    0.641042     0.006663
NI3903   NI        0.702841    0.240293    0.650255     0.004307
CU3904   CU        0.686689    0.281448    0.608228     0.006663
CU3905   CU        0.736187    0.239517    0.609610     0.006663
NI3906   NI        0.721305    0.283503    0.643633     0.004307
NI3907   NI        0.767669    0.241966    0.648164     0.004307
NI3908   NI        0.762267    0.288212    0.612461     0.004307
NI3909   NI        0.803087    0.242962    0.611474     0.004307
NI3910   NI        0.799783    0.274946    0.647487     0.004307
NI3911   NI        0.832367    0.244050    0.644203     0.004307
NI3912   NI        0.835350    0.273860    0.614678     0.004307
NI3913   NI        0.048907    0.305842    0.616355     0.004307
CU3914   CU        0.049574    0.336012    0.647942     0.006663
NI3915   NI        0.078695    0.305922    0.649565     0.004307
NI3916   NI        0.077443    0.335178    0.613945     0.004307
NI3917   NI        0.107753    0.306305    0.618126     0.004307
CU3918   CU        0.109116    0.335663    0.649957     0.006663
NI3919   NI        0.142025    0.307558    0.650445     0.004307
NI3920   NI        0.139596    0.336229    0.619051     0.004307
NI3921   NI        0.191368    0.305976    0.607262     0.004307
NI3922   NI        0.173532    0.339151    0.653391     0.004307
NI3923   NI        0.222904    0.307792    0.641819     0.004307
NI3924   NI        0.220998    0.340785    0.609350     0.004307
NI3925   NI        0.254801    0.310627    0.608431     0.004307
NI3926   NI        0.255347    0.339734    0.640808     0.004307
CU3927   CU        0.291045    0.311671    0.642587     0.006663
CU3928   CU        0.287109    0.340668    0.608068     0.006663
CU3929   CU        0.323054    0.312061    0.605778     0.006663
NI3930   NI        0.322185    0.341196    0.642724     0.004307
CU3931   CU        0.354685    0.312820    0.640339     0.006663
CU3932   CU        0.356539    0.342283    0.608147     0.006663
NI3933   NI        0.390659    0.312472    0.607343     0.004307
CU3934   CU        0.389294    0.341169    0.640029     0.006663
NI3935   NI        0.422375    0.310814    0.639944     0.004307
CU3936   CU        0.424602    0.339963    0.607778     0.006663
CU3937   CU        0.456603    0.310411    0.604257     0.006663
NI3938   NI        0.455503    0.339979    0.640809     0.004307
CU3939   CU        0.490950    0.312387    0.639072     0.006663
CU3940   CU        0.487858    0.339877    0.604908     0.006663
NI3941   NI        0.521670    0.312397    0.605990     0.004307
CU3942   CU        0.520645    0.341551    0.639923     0.006663
CU3943   CU        0.555748    0.312256    0.638667     0.006663
CU3944   CU        0.556864    0.342473    0.609044     0.006663
CU3945   CU        0.588869    0.310562    0.607174     0.006663
NI3946   NI        0.590722    0.341894    0.640949     0.004307
CU3947   CU        0.621927    0.311879    0.639830     0.006663
NI3948   NI        0.622405    0.340569    0.608402     0.004307
NI3949   NI        0.656676    0.312896    0.608598     0.004307
NI3950   NI        0.657772    0.342157    0.640892     0.004307
CU3951   CU        0.689217    0.313631    0.643370     0.006663
NI3952   NI        0.691075    0.341732    0.611981     0.004307
NI3953   NI        0.726355    0.310611    0.611290     0.004307
CU3954   CU        0.722873    0.341994    0.646889     0.006663
NI3955   NI        0.753958    0.311784    0.646781     0.004307
NI3956   NI        0.755470    0.342226    0.612342     0.004307
NI3957   NI        0.803700    0.303124    0.613778     0.004307
NI3958   NI        0.808043    0.336728    0.648560     0.004307
NI3959   NI        0.834007    0.306078    0.646168     0.004307
NI3960   NI        0.835808    0.334937    0.612444     0.004307
CU3961   CU        0.865487    0.303422    0.609942     0.006663
CU3962   CU        0.866685    0.335367    0.645890     0.006663
NI3963   NI        0.018121    0.398278    0.612850     0.004307
NI3964   NI        0.046631    0.367141    0.614008     0.004307
NI3965   NI        0.047018    0.397357    0.647929     0.004307
NI3966   NI        0.077297    0.366532    0.652309     0.004307
NI3967   NI        0.076640    0.397449    0.614192     0.004307
NI3968   NI        0.107350    0.365888    0.616161     0.004307
NI3969   NI        0.111162    0.396532    0.650975     0.004307
NI3970   NI        0.140895    0.366238    0.651335     0.004307
NI3971   NI        0.158829    0.400631    0.608791     0.004307
NI3972   NI        0.190194    0.371203    0.608281     0.004307
NI3973   NI        0.191743    0.400591    0.639481     0.004307
NI3974   NI        0.223520    0.370572    0.640608     0.004307
CU3975   CU        0.221826    0.401283    0.607738     0.006663
CU3976   CU        0.255603    0.370763    0.608390     0.006663
NI3977   NI        0.256558    0.398847    0.639971     0.004307
NI3978   NI        0.287642    0.370540    0.642334     0.004307
CU3979   CU        0.287364    0.401533    0.606455     0.006663
NI3980   NI        0.320946    0.369131    0.606725     0.004307
NI3981   NI        0.321427    0.399317    0.639759     0.004307
CU3982   CU        0.352803    0.370223    0.641472     0.006663
CU3983   CU        0.357424    0.400432    0.610581     0.006663
CU3984   CU        0.391274    0.371504    0.608224     0.006663
CU3985   CU        0.388865    0.401181    0.643334     0.006663
CU3986   CU        0.423930    0.370671    0.641917     0.006663
CU3987   CU        0.424257    0.401646    0.606004     0.006663
NI3988   NI        0.456551    0.372928    0.606592     0.004307
CU3989   CU        0.456671    0.401638    0.639223     0.006663
CU3990   CU        0.488442    0.371305    0.639617     0.006663
CU3991   CU        0.490613    0.400306    0.605313     0.006663
CU3992   CU        0.522849    0.370060    0.608331     0.006663
CU3993   CU        0.523653    0.399077    0.640514     0.006663
CU3994   CU        0.556838    0.371251    0.642167     0.006663
CU3995   CU        0.556843    0.401820    0.608938     0.006663
CU3996   CU        0.590789    0.370485    0.608412     0.006663
CU3997   CU        0.590635    0.401468    0.640017     0.006663
NI3998   NI        0.625006    0.371683    0.639252     0.004307
CU3999   CU        0.625812    0.399863    0.605823     0.006663
CU4000   CU        0.657831    0.371090    0.606652     0.006663
CU4001   CU        0.657245    0.400312    0.642577     0.006663
NI4002   NI        0.690794    0.370814    0.645436     0.004307
NI4003   NI        0.693038    0.398667    0.609488     0.004307
CU4004   CU        0.723633    0.368781    0.610476     0.006663
NI4005   NI        0.725371    0.399137    0.643919     0.004307
NI4006   NI        0.756180    0.367980    0.645907     0.004307
NI4007   NI        0.756643    0.397861    0.612602     0.004307
NI4008   NI        0.810469    0.367322    0.612469     0.004307
NI4009   NI        0.801615    0.390422    0.645388     0.004307
CU4010   CU        0.838560    0.367069    0.649147     0.006663
NI4011   NI        0.838135    0.400340    0.611415     0.004307
CU4012   CU        0.867481    0.366332    0.613208     0.006663
CU4013   CU        0.865295    0.397181    0.650985     0.006663
NI4014   NI        0.900177    0.395163    0.610885     0.004307
CU4015   CU        0.015181    0.464472    0.621693     0.006663
CU4016   CU        0.046349    0.428541    0.614869     0.006663
NI4017   NI        0.048877    0.460136    0.649081     0.004307
CU4018   CU        0.077798    0.427378    0.649440     0.006663
CU4019   CU        0.075623    0.460471    0.613550     0.006663
NI4020   NI        0.106304    0.428467    0.614115     0.004307
NI4021   NI        0.108054    0.458143    0.651528     0.004307
NI4022   NI        0.139743    0.426700    0.651665     0.004307
NI4023   NI        0.154945    0.463499    0.607913     0.004307
CU4024   CU        0.190443    0.431087    0.609213     0.006663
NI4025   NI        0.188810    0.461367    0.641633     0.004307
NI4026   NI        0.221486    0.430872    0.642336     0.004307
NI4027   NI        0.221556    0.461780    0.609619     0.004307
NI4028   NI        0.255183    0.429077    0.607505     0.004307
CU4029   CU        0.255859    0.456810    0.641484     0.006663
NI4030   NI        0.287314    0.427991    0.642682     0.004307
CU4031   CU        0.288343    0.457260    0.606304     0.006663
CU4032   CU        0.320637    0.428552    0.607607     0.006663
CU4033   CU        0.321163    0.459441    0.639394     0.006663
CU4034   CU        0.354378    0.430876    0.642364     0.006663
CU4035   CU        0.357425    0.456731    0.607861     0.006663
CU4036   CU        0.388592    0.429076    0.606255     0.006663
CU4037   CU        0.388530    0.458184    0.640795     0.006663
CU4038   CU        0.422798    0.428669    0.640891     0.006663
CU4039   CU        0.424416    0.459332    0.609244     0.006663
CU4040   CU        0.458204    0.429789    0.603744     0.006663
CU4041   CU        0.456800    0.457681    0.641339     0.006663
NI4042   NI        0.490320    0.427627    0.639896     0.004307
CU4043   CU        0.487502    0.459756    0.606838     0.006663
CU4044   CU        0.522992    0.429610    0.606724     0.006663
CU4045   CU        0.520590    0.459199    0.641710     0.006663
CU4046   CU        0.555799    0.430335    0.640751     0.006663
CU4047   CU        0.557757    0.460315    0.604426     0.006663
CU4048   CU        0.590369    0.431483    0.607755     0.006663
CU4049   CU        0.589177    0.461404    0.641158     0.006663
NI4050   NI        0.621540    0.428982    0.640272     0.004307
NI4051   NI        0.624041    0.461238    0.606425     0.004307
CU4052   CU        0.658988    0.428956    0.607957     0.006663
CU4053   CU        0.657388    0.457389    0.639548     0.006663
CU4054   CU        0.691417    0.429069    0.641274     0.006663
NI4055   NI        0.692290    0.459168    0.607559     0.004307
NI4056   NI        0.725606    0.430137    0.610848     0.004307
CU4057   CU        0.722458    0.460154    0.642696     0.006663
NI4058   NI        0.762378    0.429534    0.639663     0.004307
NI4059   NI        0.756800    0.459565    0.609989     0.004307
NI4060   NI        0.807389    0.427892    0.612324     0.004307
NI4061   NI        0.792444    0.458364    0.643989     0.004307
NI4062   NI        0.842578    0.430482    0.640671     0.004307
NI4063   NI        0.840287    0.455545    0.605915     0.004307
CU4064   CU        0.871971    0.428930    0.606260     0.006663
NI4065   NI        0.868548    0.461236    0.640766     0.004307
NI4066   NI        0.901521    0.461260    0.604394     0.004307
NI4067   NI        0.048063    0.492582    0.614968     0.004307
NI4068   NI        0.049808    0.523665    0.651611     0.004307
NI4069   NI        0.078266    0.491735    0.648266     0.004307
CU4070   CU        0.078821    0.526680    0.618717     0.006663
NI4071   NI        0.122793    0.490601    0.604400     0.004307
NI4072   NI        0.111056    0.524311    0.652163     0.004307
NI4073   NI        0.152553    0.493803    0.640637     0.004307
NI4074   NI        0.154020    0.519853    0.607649     0.004307
NI4075   NI        0.186907    0.492293    0.611346     0.004307
CU4076   CU        0.182063    0.522989    0.643775     0.006663
NI4077   NI        0.222234    0.489673    0.643881     0.004307
CU4078   CU        0.221655    0.519790    0.610827     0.006663
CU4079   CU        0.254267    0.488547    0.610501     0.006663
CU4080   CU        0.255199    0.518537    0.641391     0.006663
NI4081   NI        0.286729    0.488603    0.641904     0.004307
CU4082   CU        0.289058    0.517777    0.605622     0.006663
NI4083   NI        0.322397    0.487326    0.605013     0.004307
CU4084   CU        0.324610    0.517534    0.642302     0.006663
CU4085   CU        0.356166    0.487831    0.641284     0.006663
CU4086   CU        0.356690    0.516992    0.604596     0.006663
CU4087   CU        0.389123    0.488010    0.608498     0.006663
CU4088   CU        0.390253    0.516420    0.641992     0.006663
CU4089   CU        0.422328    0.487543    0.644102     0.006663
CU4090   CU        0.421781    0.517140    0.608623     0.006663
CU4091   CU        0.453321    0.488222    0.607676     0.006663
CU4092   CU        0.456501    0.518943    0.640710     0.006663
CU4093   CU        0.490080    0.488756    0.640220     0.006663
CU4094   CU        0.490593    0.517903    0.606818     0.006663
CU4095   CU        0.524858    0.486786    0.607796     0.006663
NI4096   NI        0.520540    0.518367    0.640690     0.004307
CU4097   CU        0.556577    0.489647    0.641539     0.006663
NI4098   NI        0.556321    0.518517    0.608304     0.004307
CU4099   CU        0.589374    0.489029    0.608514     0.006663
NI4100   NI        0.590317    0.519564    0.640383     0.004307
NI4101   NI        0.624305    0.489079    0.637222     0.004307
CU4102   CU        0.624006    0.517682    0.605178     0.006663
CU4103   CU        0.658004    0.489017    0.606274     0.006663
CU4104   CU        0.655600    0.516822    0.638982     0.006663
CU4105   CU        0.690145    0.488757    0.640075     0.006663
CU4106   CU        0.690116    0.517280    0.605701     0.006663
NI4107   NI        0.724695    0.489792    0.610702     0.004307
CU4108   CU        0.724995    0.518207    0.641941     0.006663
NI4109   NI        0.757332    0.488602    0.644690     0.004307
NI4110   NI        0.758497    0.516625    0.608807     0.004307
CU4111   CU        0.790624    0.486221    0.611628     0.006663
CU4112   CU        0.804218    0.524849    0.652019     0.006663
CU4113   CU        0.832696    0.484831    0.634524     0.006663
NI4114   NI        0.837234    0.522798    0.615789     0.004307
NI4115   NI        0.868479    0.487310    0.607106     0.004307
CU4116   CU        0.865630    0.526628    0.649571     0.006663
NI4117   NI        0.046204    0.556667    0.618722     0.004307
NI4118   NI        0.080194    0.556846    0.650076     0.004307
NI4119   NI        0.078375    0.585219    0.617574     0.004307
NI4120   NI        0.109585    0.556296    0.615442     0.004307
NI4121   NI        0.111940    0.585914    0.650328     0.004307
NI4122   NI        0.149272    0.552814    0.635707     0.004307
NI4123   NI        0.139421    0.587159    0.617630     0.004307
NI4124   NI        0.188152    0.547731    0.608509     0.004307
NI4125   NI        0.177176    0.587565    0.648415     0.004307
NI4126   NI        0.222649    0.548455    0.638988     0.004307
NI4127   NI        0.223986    0.579775    0.606744     0.004307
CU4128   CU        0.254760    0.547420    0.607087     0.006663
NI4129   NI        0.258034    0.580477    0.639060     0.004307
NI4130   NI        0.289678    0.546549    0.637872     0.004307
NI4131   NI        0.288963    0.579510    0.607174     0.004307
CU4132   CU        0.322219    0.545904    0.607935     0.006663
NI4133   NI        0.325026    0.576162    0.640580     0.004307
CU4134   CU        0.359633    0.547563    0.640881     0.006663
CU4135   CU        0.358536    0.578512    0.606962     0.006663
CU4136   CU        0.391133    0.547915    0.608158     0.006663
CU4137   CU        0.391492    0.577691    0.639050     0.006663
CU4138   CU        0.425471    0.548547    0.641167     0.006663
CU4139   CU        0.423699    0.576824    0.605528     0.006663
CU4140   CU        0.456120    0.546651    0.607599     0.006663
NI4141   NI        0.458445    0.577394    0.639984     0.004307
CU4142   CU        0.489415    0.547968    0.641680     0.006663
CU4143   CU        0.488000    0.578534    0.607773     0.006663
CU4144   CU        0.523620    0.550342    0.606025     0.006663
CU4145   CU        0.522255    0.579393    0.639532     0.006663
NI4146   NI        0.557816    0.548753    0.638440     0.004307
CU4147   CU        0.555665    0.578718    0.606245     0.006663
NI4148   NI        0.591552    0.549799    0.606133     0.004307
CU4149   CU        0.590680    0.578743    0.639755     0.006663
CU4150   CU        0.625026    0.549983    0.638895     0.006663
CU4151   CU        0.621496    0.578624    0.605385     0.006663
CU4152   CU        0.656226    0.550342    0.604723     0.006663
CU4153   CU        0.656182    0.576910    0.638375     0.006663
NI4154   NI        0.701220    0.555294    0.649898     0.004307
NI4155   NI        0.690811    0.577600    0.606613     0.004307
NI4156   NI        0.723225    0.544931    0.609176     0.004307
CU4157   CU        0.734801    0.587779    0.649808     0.006663
NI4158   NI        0.770671    0.556327    0.649538     0.004307
NI4159   NI        0.774211    0.585273    0.614302     0.004307
CU4160   CU        0.805184    0.554037    0.610549     0.006663
NI4161   NI        0.804990    0.585106    0.647709     0.004307
CU4162   CU        0.834905    0.555711    0.646714     0.006663
NI4163   NI        0.836662    0.585223    0.611959     0.004307
NI4164   NI        0.866946    0.552162    0.613583     0.004307
NI4165   NI        0.081006    0.615358    0.648466     0.004307
NI4166   NI        0.076139    0.642862    0.613741     0.004307
NI4167   NI        0.110218    0.616337    0.613594     0.004307
NI4168   NI        0.114397    0.644328    0.645031     0.004307
CU4169   CU        0.144723    0.614915    0.648334     0.006663
CU4170   CU        0.144189    0.646869    0.612543     0.006663
NI4171   NI        0.175074    0.618420    0.614927     0.004307
NI4172   NI        0.177507    0.645842    0.649084     0.004307
CU4173   CU        0.224719    0.608867    0.641185     0.006663
NI4174   NI        0.221711    0.637942    0.605925     0.004307
NI4175   NI        0.257717    0.608627    0.606595     0.004307
NI4176   NI        0.257938    0.639189    0.638507     0.004307
CU4177   CU        0.290517    0.609457    0.639657     0.006663
NI4178   NI        0.292761    0.636910    0.604342     0.004307
NI4179   NI        0.324846    0.606653    0.606360     0.004307
NI4180   NI        0.324121    0.633550    0.638388     0.004307
CU4181   CU        0.358254    0.605993    0.640075     0.006663
NI4182   NI        0.357964    0.632102    0.604797     0.004307
CU4183   CU        0.392307    0.606387    0.605531     0.006663
NI4184   NI        0.391508    0.633024    0.640644     0.004307
CU4185   CU        0.425166    0.605720    0.639556     0.006663
CU4186   CU        0.426449    0.634736    0.606453     0.006663
CU4187   CU        0.457979    0.606575    0.605956     0.006663
NI4188   NI        0.459453    0.637142    0.639426     0.004307
CU4189   CU        0.489019    0.608027    0.641601     0.006663
NI4190   NI        0.489780    0.634211    0.604882     0.004307
CU4191   CU        0.523305    0.607572    0.607890     0.006663
NI4192   NI        0.521044    0.637436    0.639591     0.004307
NI4193   NI        0.557539    0.607333    0.640598     0.004307
NI4194   NI        0.554310    0.637740    0.607020     0.004307
CU4195   CU        0.587139    0.607936    0.605163     0.006663
NI4196   NI        0.597627    0.645179    0.652432     0.004307
CU4197   CU        0.623627    0.608649    0.636859     0.006663
NI4198   NI        0.634652    0.642503    0.613885     0.004307
CU4199   CU        0.657626    0.606542    0.605826     0.006663
NI4200   NI        0.667285    0.647216    0.650597     0.004307
NI4201   NI        0.702811    0.619125    0.650360     0.004307
CU4202   CU        0.702756    0.648032    0.616318     0.006663
NI4203   NI        0.736153    0.615002    0.617638     0.004307
NI4204   NI        0.736839    0.646333    0.648005     0.004307
NI4205   NI        0.768605    0.614672    0.649800     0.004307
CU4206   CU        0.771524    0.645501    0.613694     0.006663
NI4207   NI        0.803713    0.615511    0.614126     0.004307
NI4208   NI        0.801684    0.644692    0.648324     0.004307
NI4209   NI        0.832979    0.615812    0.650590     0.004307
NI4210   NI        0.832788    0.646129    0.613988     0.004307
NI4211   NI        0.114446    0.676935    0.613658     0.004307
CU4212   CU        0.145334    0.675092    0.644976     0.006663
NI4213   NI        0.147612    0.704968    0.610536     0.004307
NI4214   NI        0.181072    0.673371    0.612354     0.004307
NI4215   NI        0.177383    0.702042    0.645295     0.004307
NI4216   NI        0.212696    0.675270    0.646922     0.004307
CU4217   CU        0.212177    0.704525    0.612691     0.006663
NI4218   NI        0.242761    0.675860    0.614289     0.004307
NI4219   NI        0.247663    0.704741    0.645391     0.004307
NI4220   NI        0.280739    0.676626    0.646745     0.004307
NI4221   NI        0.278173    0.703887    0.611641     0.004307
NI4222   NI        0.329416    0.661645    0.600773     0.004307
NI4223   NI        0.311104    0.705212    0.646536     0.004307
NI4224   NI        0.361187    0.660662    0.636084     0.004307
NI4225   NI        0.364128    0.691759    0.598914     0.004307
NI4226   NI        0.393560    0.661153    0.605782     0.004307
NI4227   NI        0.392072    0.691109    0.640079     0.004307
NI4228   NI        0.424223    0.661521    0.641708     0.004307
NI4229   NI        0.424662    0.691339    0.607288     0.004307
NI4230   NI        0.458200    0.664120    0.604110     0.004307
NI4231   NI        0.467713    0.713891    0.643058     0.004307
NI4232   NI        0.496234    0.682116    0.648185     0.004307
CU4233   CU        0.500738    0.710963    0.614125     0.006663
NI4234   NI        0.531750    0.681758    0.613965     0.004307
NI4235   NI        0.530928    0.709050    0.648544     0.004307
NI4236   NI        0.565535    0.680080    0.648414     0.004307
CU4237   CU        0.563243    0.710674    0.614775     0.006663
CU4238   CU        0.597839    0.684653    0.613100     0.006663
NI4239   NI        0.597302    0.708100    0.649852     0.004307
NI4240   NI        0.632929    0.677042    0.649580     0.004307
NI4241   NI        0.632617    0.709942    0.615041     0.004307
NI4242   NI        0.666519    0.677185    0.614692     0.004307
NI4243   NI        0.665815    0.705466    0.646648     0.004307
NI4244   NI        0.700054    0.674765    0.648382     0.004307
CU4245   CU        0.698890    0.705131    0.615056     0.006663
NI4246   NI        0.735913    0.675747    0.611694     0.004307
CU4247   CU        0.731447    0.705410    0.643935     0.006663
NI4248   NI        0.767285    0.674068    0.646318     0.004307
NI4249   NI        0.768428    0.703811    0.613001     0.004307
CU4250   CU        0.801324    0.675732    0.614854     0.006663
NI4251   NI        0.178185    0.733787    0.614250     0.004307
NI4252   NI        0.212539    0.733344    0.644590     0.004307
NI4253   NI        0.214899    0.761919    0.612819     0.004307
NI4254   NI        0.246713    0.736144    0.613754     0.004307
NI4255   NI        0.247346    0.760951    0.649126     0.004307
NI4256   NI        0.280384    0.733966    0.646571     0.004307
NI4257   NI        0.279244    0.766094    0.613886     0.004307
NI4258   NI        0.311108    0.735688    0.613816     0.004307
NI4259   NI        0.314009    0.764443    0.648889     0.004307
CU4260   CU        0.346168    0.738160    0.648042     0.006663
NI4261   NI        0.345235    0.763938    0.615255     0.004307
NI4262   NI        0.382200    0.724462    0.581180     0.004307
NI4263   NI        0.382401    0.762194    0.652910     0.004307
CU4264   CU        0.422492    0.749908    0.644946     0.006663
NI4265   NI        0.425121    0.773715    0.605454     0.004307
CU4266   CU        0.454080    0.744961    0.612301     0.006663
NI4267   NI        0.457402    0.774245    0.641885     0.004307
NI4268   NI        0.491890    0.745553    0.642146     0.004307
NI4269   NI        0.489703    0.772481    0.609958     0.004307
NI4270   NI        0.527853    0.743192    0.614725     0.004307
NI4271   NI        0.522587    0.774818    0.640843     0.004307
NI4272   NI        0.565784    0.736384    0.649969     0.004307
NI4273   NI        0.565037    0.766268    0.613347     0.004307
NI4274   NI        0.597833    0.737388    0.613473     0.004307
NI4275   NI        0.597419    0.765272    0.650244     0.004307
NI4276   NI        0.632781    0.735778    0.648515     0.004307
NI4277   NI        0.631471    0.764020    0.612469     0.004307
CU4278   CU        0.664899    0.737796    0.613812     0.006663
NI4279   NI        0.664626    0.762774    0.649053     0.004307
NI4280   NI        0.699379    0.736851    0.648147     0.004307
NI4281   NI        0.698347    0.763202    0.614518     0.004307
NI4282   NI        0.731044    0.735599    0.612930     0.004307
NI4283   NI        0.314337    0.792881    0.615050     0.004307
NI4284   NI        0.381120    0.822472    0.647250     0.004307
CU4285   CU        0.383162    0.788699    0.614965     0.006663
NI4286   NI        0.416134    0.791305    0.647196     0.004307
NI4287   NI        0.423008    0.832663    0.602388     0.004307
NI4288   NI        0.455185    0.802598    0.604740     0.004307
CU4289   CU        0.488337    0.801529    0.639490     0.006663
NI4290   NI        0.493500    0.827773    0.604619     0.004307
NI4291   NI        0.523125    0.799356    0.606381     0.004307
NI4292   NI        0.560057    0.790756    0.650748     0.004307
NI4293   NI        0.594397    0.795599    0.614300     0.004307
NI4294   NI        0.305589    0.079365    0.685338     0.004307
CU4295   CU        0.319958    0.098207    0.721846     0.006663
NI4296   NI        0.348062    0.092206    0.683782     0.004307
NI4297   NI        0.393174    0.068945    0.685901     0.004307
NI4298   NI        0.390165    0.096391    0.720488     0.004307
NI4299   NI        0.426657    0.097988    0.688545     0.004307
NI4300   NI        0.457031    0.069606    0.683955     0.004307
CU4301   CU        0.459288    0.097187    0.720430     0.006663
NI4302   NI        0.493542    0.094847    0.684244     0.004307
NI4303   NI        0.525797    0.067431    0.684028     0.004307
NI4304   NI        0.526405    0.097695    0.718415     0.004307
NI4305   NI        0.563351    0.092102    0.683168     0.004307
NI4306   NI        0.596431    0.096714    0.715045     0.004307
NI4307   NI        0.631470    0.099288    0.681996     0.004307
NI4308   NI        0.212800    0.153847    0.677588     0.004307
NI4309   NI        0.246538    0.125264    0.679268     0.004307
NI4310   NI        0.253459    0.157685    0.717538     0.004307
NI4311   NI        0.284242    0.126458    0.717168     0.004307
NI4312   NI        0.281089    0.153366    0.681852     0.004307
NI4313   NI        0.315682    0.118804    0.680593     0.004307
NI4314   NI        0.317447    0.153503    0.718371     0.004307
NI4315   NI        0.353590    0.123922    0.722389     0.004307
NI4316   NI        0.348253    0.149429    0.682744     0.004307
CU4317   CU        0.383134    0.120903    0.685251     0.006663
NI4318   NI        0.383763    0.154283    0.719879     0.004307
CU4319   CU        0.424372    0.125947    0.718945     0.006663
NI4320   NI        0.424604    0.162097    0.672478     0.004307
NI4321   NI        0.461075    0.124451    0.686543     0.004307
NI4322   NI        0.458501    0.152788    0.722321     0.004307
NI4323   NI        0.493195    0.125354    0.718400     0.004307
CU4324   CU        0.494751    0.152319    0.685542     0.006663
NI4325   NI        0.527214    0.124695    0.684085     0.004307
NI4326   NI        0.526695    0.151833    0.720639     0.004307
NI4327   NI        0.561239    0.123987    0.717612     0.004307
CU4328   CU        0.564465    0.150511    0.686052     0.006663
CU4329   CU        0.596585    0.123259    0.683535     0.006663
NI4330   NI        0.598492    0.152596    0.716398     0.004307
NI4331   NI        0.630298    0.124489    0.718288     0.004307
NI4332   NI        0.633629    0.152669    0.683563     0.004307
NI4333   NI        0.667249    0.125048    0.678633     0.004307
NI4334   NI        0.666448    0.154340    0.717672     0.004307
NI4335   NI        0.701892    0.154385    0.676671     0.004307
NI4336   NI        0.145315    0.215182    0.679253     0.004307
NI4337   NI        0.178609    0.183916    0.676313     0.004307
NI4338   NI        0.178499    0.214353    0.714646     0.004307
CU4339   CU        0.208219    0.181002    0.710060     0.006663
CU4340   CU        0.213591    0.212841    0.683965     0.006663
NI4341   NI        0.247082    0.185427    0.685021     0.004307
NI4342   NI        0.251816    0.214438    0.717933     0.004307
NI4343   NI        0.285257    0.185066    0.718061     0.004307
NI4344   NI        0.282058    0.213080    0.683702     0.004307
NI4345   NI        0.315410    0.181300    0.686371     0.004307
NI4346   NI        0.317670    0.212381    0.717617     0.004307
NI4347   NI        0.348427    0.182532    0.718241     0.004307
NI4348   NI        0.357776    0.222180    0.672855     0.004307
CU4349   CU        0.391688    0.191967    0.673167     0.006663
NI4350   NI        0.390700    0.223349    0.705632     0.004307
NI4351   NI        0.422873    0.196450    0.707658     0.004307
NI4352   NI        0.421926    0.224083    0.672943     0.004307
NI4353   NI        0.454737    0.193436    0.673054     0.004307
NI4354   NI        0.454736    0.225635    0.701335     0.004307
NI4355   NI        0.493839    0.180093    0.723105     0.004307
NI4356   NI        0.489695    0.224044    0.671848     0.004307
NI4357   NI        0.527818    0.193087    0.673679     0.004307
NI4358   NI        0.523817    0.226202    0.704209     0.004307
CU4359   CU        0.563239    0.181890    0.720279     0.006663
NI4360   NI        0.557307    0.224476    0.672241     0.004307
CU4361   CU        0.600076    0.180364    0.684053     0.006663
NI4362   NI        0.601353    0.209535    0.714732     0.004307
CU4363   CU        0.633029    0.182477    0.716870     0.006663
CU4364   CU        0.634908    0.209154    0.683852     0.006663
NI4365   NI        0.666923    0.182375    0.682831     0.004307
NI4366   NI        0.666173    0.211378    0.715663     0.004307
CU4367   CU        0.698223    0.185211    0.716640     0.006663
NI4368   NI        0.701512    0.211567    0.682389     0.004307
NI4369   NI        0.731201    0.184128    0.681033     0.004307
NI4370   NI        0.731944    0.215817    0.718188     0.004307
NI4371   NI        0.766364    0.212101    0.680052     0.004307
NI4372   NI        0.082171    0.274405    0.682502     0.004307
NI4373   NI        0.112320    0.245042    0.683702     0.004307
NI4374   NI        0.112681    0.276596    0.716213     0.004307
NI4375   NI        0.144977    0.247613    0.715802     0.004307
CU4376   CU        0.143130    0.275039    0.681125     0.006663
NI4377   NI        0.175708    0.243807    0.683435     0.004307
NI4378   NI        0.175308    0.278585    0.716249     0.004307
NI4379   NI        0.216688    0.237487    0.722259     0.004307
NI4380   NI        0.228811    0.276988    0.676352     0.004307
NI4381   NI        0.248994    0.241297    0.685097     0.004307
NI4382   NI        0.259055    0.277594    0.711709     0.004307
NI4383   NI        0.283868    0.243399    0.718362     0.004307
NI4384   NI        0.289593    0.279528    0.673531     0.004307
NI4385   NI        0.316271    0.242468    0.682761     0.004307
NI4386   NI        0.325823    0.283716    0.707733     0.004307
NI4387   NI        0.356094    0.253372    0.701346     0.004307
CU4388   CU        0.356207    0.285185    0.672995     0.006663
CU4389   CU        0.390099    0.253392    0.670737     0.006663
NI4390   NI        0.390601    0.282647    0.704286     0.004307
NI4391   NI        0.423957    0.251953    0.705573     0.004307
CU4392   CU        0.423236    0.280632    0.670928     0.006663
NI4393   NI        0.457690    0.253766    0.670465     0.004307
NI4394   NI        0.456241    0.281263    0.705149     0.004307
NI4395   NI        0.488506    0.253607    0.702894     0.004307
CU4396   CU        0.489534    0.283497    0.671832     0.006663
NI4397   NI        0.522770    0.253038    0.671526     0.004307
NI4398   NI        0.521296    0.282520    0.702868     0.004307
NI4399   NI        0.555509    0.253805    0.703289     0.004307
NI4400   NI        0.557469    0.283786    0.671500     0.004307
NI4401   NI        0.591879    0.251947    0.673090     0.004307
CU4402   CU        0.588863    0.282067    0.704080     0.006663
NI4403   NI        0.621001    0.255936    0.713048     0.004307
NI4404   NI        0.623135    0.281169    0.672178     0.004307
NI4405   NI        0.670064    0.241671    0.683911     0.004307
CU4406   CU        0.666358    0.273541    0.718738     0.006663
NI4407   NI        0.698461    0.245080    0.718552     0.004307
NI4408   NI        0.702152    0.272945    0.686787     0.004307
NI4409   NI        0.734787    0.241838    0.682552     0.004307
CU4410   CU        0.734937    0.273100    0.718695     0.006663
NI4411   NI        0.766171    0.243036    0.716289     0.004307
CU4412   CU        0.769460    0.268204    0.680956     0.006663
NI4413   NI        0.800322    0.242561    0.679172     0.004307
NI4414   NI        0.798997    0.276930    0.713080     0.004307
CU4415   CU        0.829983    0.272812    0.680262     0.006663
CU4416   CU        0.079658    0.305113    0.716257     0.006663
NI4417   NI        0.077344    0.336804    0.685217     0.004307
NI4418   NI        0.110910    0.304906    0.683014     0.004307
NI4419   NI        0.108551    0.337304    0.719718     0.004307
NI4420   NI        0.143081    0.307469    0.718646     0.004307
CU4421   CU        0.141010    0.336338    0.685354     0.006663
NI4422   NI        0.175383    0.308315    0.687345     0.004307
NI4423   NI        0.175144    0.338691    0.721513     0.004307
NI4424   NI        0.208109    0.309595    0.719621     0.004307
NI4425   NI        0.225996    0.340110    0.673200     0.004307
NI4426   NI        0.258166    0.310763    0.675745     0.004307
NI4427   NI        0.257809    0.340507    0.706368     0.004307
NI4428   NI        0.290346    0.308494    0.707271     0.004307
CU4429   CU        0.289390    0.340485    0.675941     0.006663
NI4430   NI        0.322299    0.312401    0.674710     0.004307
CU4431   CU        0.323386    0.339000    0.708976     0.006663
NI4432   NI        0.356353    0.310972    0.706606     0.004307
CU4433   CU        0.357357    0.342348    0.677371     0.006663
NI4434   NI        0.388657    0.312379    0.672992     0.004307
CU4435   CU        0.389703    0.341245    0.709301     0.006663
CU4436   CU        0.423158    0.310288    0.705939     0.006663
CU4437   CU        0.421713    0.340900    0.673593     0.006663
CU4438   CU        0.455331    0.311366    0.673308     0.006663
NI4439   NI        0.457157    0.339369    0.703811     0.004307
NI4440   NI        0.487559    0.312271    0.706077     0.004307
NI4441   NI        0.488789    0.341865    0.672023     0.004307
CU4442   CU        0.521593    0.312307    0.673302     0.006663
CU4443   CU        0.522451    0.341177    0.705494     0.006663
NI4444   NI        0.557579    0.312703    0.706105     0.004307
CU4445   CU        0.558005    0.341458    0.673801     0.006663
CU4446   CU        0.589629    0.311919    0.673242     0.006663
CU4447   CU        0.589309    0.339428    0.707210     0.006663
NI4448   NI        0.632263    0.298768    0.717878     0.004307
CU4449   CU        0.621767    0.343194    0.673225     0.006663
NI4450   NI        0.667710    0.301432    0.684718     0.004307
NI4451   NI        0.657920    0.338846    0.709189     0.004307
NI4452   NI        0.700410    0.303140    0.719711     0.004307
NI4453   NI        0.688216    0.343775    0.676088     0.004307
NI4454   NI        0.713924    0.313294    0.679475     0.004307
NI4455   NI        0.721002    0.340184    0.717092     0.004307
NI4456   NI        0.754471    0.303235    0.690138     0.004307
NI4457   NI        0.751625    0.341427    0.683362     0.004307
NI4458   NI        0.802427    0.303858    0.679146     0.004307
NI4459   NI        0.805777    0.333831    0.711119     0.004307
NI4460   NI        0.834076    0.302652    0.714388     0.004307
NI4461   NI        0.838657    0.332873    0.679974     0.004307
NI4462   NI        0.046822    0.367902    0.683805     0.004307
NI4463   NI        0.079993    0.367833    0.717849     0.004307
NI4464   NI        0.078232    0.398334    0.684112     0.004307
NI4465   NI        0.111132    0.369172    0.684447     0.004307
NI4466   NI        0.110865    0.398215    0.719864     0.004307
NI4467   NI        0.142987    0.367229    0.720608     0.004307
CU4468   CU        0.141855    0.397935    0.686522     0.006663
NI4469   NI        0.175073    0.366915    0.689402     0.004307
NI4470   NI        0.176030    0.398741    0.719676     0.004307
NI4471   NI        0.210076    0.368232    0.723183     0.004307
NI4472   NI        0.209245    0.400710    0.685700     0.004307
NI4473   NI        0.256414    0.368671    0.673231     0.004307
NI4474   NI        0.242543    0.398737    0.721565     0.004307
CU4475   CU        0.289173    0.370704    0.709239     0.006663
CU4476   CU        0.285914    0.398378    0.675928     0.006663
NI4477   NI        0.321891    0.370243    0.678532     0.004307
CU4478   CU        0.323536    0.399683    0.710339     0.006663
CU4479   CU        0.356764    0.369877    0.710549     0.006663
CU4480   CU        0.355332    0.399985    0.675139     0.006663
CU4481   CU        0.389614    0.370645    0.674277     0.006663
CU4482   CU        0.386724    0.401136    0.709419     0.006663
CU4483   CU        0.421259    0.371052    0.707495     0.006663
CU4484   CU        0.422607    0.400619    0.675453     0.006663
CU4485   CU        0.457049    0.370197    0.674277     0.006663
CU4486   CU        0.456806    0.400307    0.707561     0.006663
NI4487   NI        0.489411    0.370457    0.707965     0.004307
CU4488   CU        0.489243    0.398652    0.674746     0.006663
NI4489   NI        0.521068    0.368911    0.671892     0.004307
NI4490   NI        0.521593    0.398230    0.705884     0.004307
CU4491   CU        0.556579    0.369583    0.706318     0.006663
CU4492   CU        0.556905    0.401907    0.674011     0.006663
CU4493   CU        0.590239    0.371519    0.673581     0.006663
NI4494   NI        0.587489    0.401334    0.706967     0.004307
CU4495   CU        0.621540    0.369563    0.707894     0.006663
CU4496   CU        0.621100    0.401743    0.675063     0.006663
NI4497   NI        0.656969    0.370652    0.678549     0.004307
NI4498   NI        0.654751    0.399521    0.709696     0.004307
NI4499   NI        0.688482    0.368062    0.712068     0.004307
NI4500   NI        0.691039    0.401358    0.677120     0.004307
CU4501   CU        0.722186    0.370906    0.680787     0.006663
NI4502   NI        0.723834    0.399523    0.714828     0.004307
NI4503   NI        0.754900    0.367856    0.715237     0.004307
NI4504   NI        0.756380    0.397694    0.681866     0.004307
NI4505   NI        0.807807    0.366699    0.682531     0.004307
CU4506   CU        0.803786    0.398399    0.716608     0.006663
CU4507   CU        0.833899    0.364323    0.717711     0.006663
NI4508   NI        0.836552    0.395516    0.685652     0.004307
NI4509   NI        0.867469    0.367187    0.684209     0.004307
NI4510   NI        0.045975    0.428767    0.683161     0.004307
NI4511   NI        0.078748    0.429735    0.717580     0.004307
CU4512   CU        0.078154    0.460805    0.685419     0.006663
NI4513   NI        0.109658    0.428140    0.684091     0.004307
NI4514   NI        0.109096    0.461821    0.717974     0.004307
NI4515   NI        0.140773    0.428695    0.718808     0.004307
CU4516   CU        0.140030    0.458388    0.686602     0.006663
NI4517   NI        0.176328    0.429912    0.687864     0.004307
NI4518   NI        0.176376    0.459312    0.720709     0.004307
NI4519   NI        0.210622    0.427934    0.722051     0.004307
NI4520   NI        0.221700    0.460648    0.675257     0.004307
NI4521   NI        0.244055    0.430400    0.690069     0.004307
NI4522   NI        0.239991    0.459361    0.720073     0.004307
CU4523   CU        0.288949    0.428341    0.708907     0.006663
CU4524   CU        0.289832    0.458596    0.671786     0.006663
NI4525   NI        0.320532    0.429521    0.675513     0.004307
CU4526   CU        0.322220    0.460076    0.710186     0.006663
NI4527   NI        0.354364    0.430097    0.708227     0.004307
NI4528   NI        0.355742    0.458832    0.674540     0.004307
NI4529   NI        0.388330    0.429516    0.677476     0.004307
NI4530   NI        0.388159    0.458159    0.708366     0.004307
CU4531   CU        0.419261    0.429702    0.710867     0.006663
CU4532   CU        0.421271    0.457286    0.675839     0.006663
CU4533   CU        0.456425    0.428589    0.674295     0.006663
NI4534   NI        0.453724    0.459062    0.707838     0.004307
NI4535   NI        0.488802    0.428552    0.703868     0.004307
CU4536   CU        0.488116    0.458798    0.675657     0.006663
CU4537   CU        0.521498    0.430654    0.672666     0.006663
NI4538   NI        0.522449    0.458726    0.706321     0.004307
CU4539   CU        0.556466    0.429565    0.706076     0.006663
NI4540   NI        0.553827    0.458352    0.673474     0.004307
CU4541   CU        0.588902    0.430139    0.673791     0.006663
NI4542   NI        0.591949    0.462528    0.708790     0.004307
NI4543   NI        0.625178    0.430935    0.709094     0.004307
CU4544   CU        0.623372    0.460607    0.672996     0.006663
NI4545   NI        0.657841    0.429616    0.672661     0.004307
NI4546   NI        0.656193    0.458467    0.707606     0.004307
NI4547   NI        0.689935    0.427964    0.712316     0.004307
NI4548   NI        0.691573    0.458936    0.675008     0.004307
NI4549   NI        0.722962    0.427045    0.678357     0.004307
NI4550   NI        0.740827    0.462549    0.721067     0.004307
NI4551   NI        0.772305    0.432119    0.719271     0.004307
NI4552   NI        0.770333    0.462338    0.685855     0.004307
CU4553   CU        0.803853    0.433402    0.686599     0.006663
NI4554   NI        0.801661    0.462758    0.719203     0.004307
NI4555   NI        0.834436    0.428759    0.719602     0.004307
NI4556   NI        0.834316    0.461852    0.689347     0.004307
NI4557   NI        0.865401    0.432201    0.680136     0.004307
NI4558   NI        0.033952    0.464536    0.695410     0.004307
NI4559   NI        0.081678    0.494408    0.719676     0.004307
NI4560   NI        0.080374    0.522439    0.684912     0.004307
NI4561   NI        0.110991    0.490005    0.684911     0.004307
NI4562   NI        0.111673    0.525060    0.716396     0.004307
NI4563   NI        0.142335    0.493200    0.720704     0.004307
NI4564   NI        0.147466    0.512940    0.679744     0.004307
NI4565   NI        0.188486    0.493935    0.674939     0.004307
NI4566   NI        0.175531    0.519809    0.717001     0.004307
NI4567   NI        0.206961    0.490361    0.722155     0.004307
NI4568   NI        0.220133    0.519562    0.672499     0.004307
CU4569   CU        0.253416    0.488562    0.674922     0.006663
NI4570   NI        0.257246    0.517624    0.703751     0.004307
CU4571   CU        0.289051    0.488626    0.707410     0.006663
CU4572   CU        0.292092    0.518363    0.673511     0.006663
CU4573   CU        0.321943    0.488268    0.674602     0.006663
CU4574   CU        0.322285    0.517800    0.706167     0.006663
CU4575   CU        0.356053    0.488651    0.708614     0.006663
NI4576   NI        0.357177    0.517574    0.674676     0.004307
CU4577   CU        0.389523    0.486739    0.675284     0.006663
NI4578   NI        0.389809    0.515826    0.705959     0.004307
CU4579   CU        0.423199    0.486627    0.707726     0.006663
NI4580   NI        0.423392    0.516849    0.674787     0.004307
CU4581   CU        0.455275    0.487588    0.674925     0.006663
NI4582   NI        0.459630    0.519094    0.707803     0.004307
NI4583   NI        0.490214    0.489799    0.708580     0.004307
CU4584   CU        0.490020    0.520321    0.674484     0.006663
CU4585   CU        0.520000    0.489449    0.673743     0.006663
CU4586   CU        0.523025    0.520613    0.705754     0.006663
CU4587   CU        0.556559    0.490518    0.705004     0.006663
CU4588   CU        0.556437    0.519921    0.674283     0.006663
CU4589   CU        0.590140    0.489291    0.673750     0.006663
NI4590   NI        0.590400    0.520548    0.706027     0.004307
CU4591   CU        0.625303    0.489819    0.705792     0.006663
NI4592   NI        0.624567    0.516900    0.671246     0.004307
CU4593   CU        0.658734    0.487569    0.674090     0.006663
NI4594   NI        0.658644    0.521319    0.705311     0.004307
NI4595   NI        0.686806    0.489216    0.710758     0.004307
CU4596   CU        0.688877    0.518003    0.672472     0.006663
NI4597   NI        0.721932    0.489887    0.674441     0.004307
NI4598   NI        0.736487    0.526447    0.717712     0.004307
NI4599   NI        0.770056    0.492264    0.720453     0.004307
NI4600   NI        0.772600    0.524267    0.687258     0.004307
NI4601   NI        0.802243    0.494228    0.685950     0.004307
NI4602   NI        0.802075    0.522830    0.718809     0.004307
NI4603   NI        0.831554    0.492255    0.718870     0.004307
NI4604   NI        0.834310    0.523974    0.684638     0.004307
NI4605   NI        0.864224    0.493922    0.686870     0.004307
NI4606   NI        0.077703    0.557338    0.718021     0.004307
NI4607   NI        0.080568    0.585264    0.681551     0.004307
CU4608   CU        0.109507    0.556502    0.686256     0.006663
NI4609   NI        0.111385    0.586646    0.714127     0.004307
CU4610   CU        0.145338    0.556192    0.714658     0.006663
NI4611   NI        0.143721    0.586346    0.682082     0.004307
NI4612   NI        0.191477    0.555328    0.672243     0.004307
NI4613   NI        0.178126    0.585208    0.715849     0.004307
NI4614   NI        0.222054    0.550211    0.703907     0.004307
NI4615   NI        0.213746    0.588436    0.685665     0.004307
CU4616   CU        0.254022    0.548454    0.672998     0.006663
NI4617   NI        0.254636    0.578655    0.702679     0.004307
NI4618   NI        0.289557    0.546684    0.705267     0.004307
NI4619   NI        0.289235    0.575978    0.670710     0.004307
CU4620   CU        0.323173    0.547703    0.673249     0.006663
NI4621   NI        0.321078    0.577180    0.706096     0.004307
CU4622   CU        0.357754    0.549486    0.706411     0.006663
CU4623   CU        0.357032    0.575753    0.674887     0.006663
CU4624   CU        0.390012    0.547746    0.674072     0.006663
NI4625   NI        0.390945    0.579979    0.708380     0.004307
NI4626   NI        0.422863    0.548908    0.709258     0.004307
NI4627   NI        0.423617    0.577487    0.671785     0.004307
CU4628   CU        0.455516    0.548916    0.674102     0.006663
NI4629   NI        0.456072    0.578683    0.708214     0.004307
NI4630   NI        0.488387    0.551604    0.705333     0.004307
CU4631   CU        0.488229    0.578837    0.671624     0.006663
CU4632   CU        0.523199    0.550153    0.674248     0.006663
NI4633   NI        0.522924    0.578711    0.704201     0.004307
NI4634   NI        0.557164    0.548995    0.707975     0.004307
CU4635   CU        0.555619    0.579784    0.673419     0.006663
CU4636   CU        0.592022    0.550400    0.671895     0.006663
NI4637   NI        0.591201    0.579016    0.706012     0.004307
CU4638   CU        0.624012    0.551537    0.708035     0.006663
CU4639   CU        0.624060    0.577838    0.672654     0.006663
NI4640   NI        0.657875    0.546955    0.670482     0.004307
CU4641   CU        0.659608    0.578191    0.702755     0.006663
NI4642   NI        0.691675    0.550051    0.703402     0.004307
CU4643   CU        0.699945    0.587991    0.681775     0.006663
NI4644   NI        0.734808    0.557549    0.683853     0.004307
NI4645   NI        0.737881    0.585359    0.715582     0.004307
NI4646   NI        0.767566    0.555048    0.715216     0.004307
CU4647   CU        0.769974    0.585440    0.681430     0.006663
NI4648   NI        0.801789    0.553997    0.682908     0.004307
NI4649   NI        0.800469    0.583506    0.713935     0.004307
NI4650   NI        0.831650    0.555386    0.717383     0.004307
NI4651   NI        0.833365    0.584106    0.682400     0.004307
NI4652   NI        0.113892    0.617445    0.680637     0.004307
NI4653   NI        0.146222    0.612528    0.714292     0.004307
CU4654   CU        0.145658    0.644643    0.680592     0.006663
NI4655   NI        0.177941    0.614916    0.681230     0.004307
NI4656   NI        0.177907    0.643524    0.714889     0.004307
CU4657   CU        0.211809    0.615359    0.718252     0.006663
NI4658   NI        0.212961    0.646073    0.684257     0.004307
NI4659   NI        0.254668    0.607008    0.673888     0.004307
NI4660   NI        0.246017    0.645415    0.717178     0.004307
NI4661   NI        0.289212    0.607043    0.703486     0.004307
CU4662   CU        0.290398    0.638052    0.673785     0.006663
NI4663   NI        0.322793    0.605680    0.672941     0.004307
NI4664   NI        0.322589    0.633936    0.705439     0.004307
NI4665   NI        0.358217    0.607682    0.707006     0.004307
NI4666   NI        0.355744    0.635049    0.672807     0.004307
CU4667   CU        0.391062    0.607631    0.673981     0.006663
NI4668   NI        0.390323    0.633574    0.709451     0.004307
NI4669   NI        0.424339    0.607122    0.710202     0.004307
NI4670   NI        0.425526    0.636294    0.675445     0.004307
NI4671   NI        0.455887    0.607191    0.672582     0.004307
NI4672   NI        0.457019    0.637166    0.708533     0.004307
NI4673   NI        0.489114    0.605794    0.706305     0.004307
NI4674   NI        0.487589    0.635354    0.674484     0.004307
NI4675   NI        0.522855    0.607608    0.671989     0.004307
NI4676   NI        0.529677    0.651099    0.716742     0.004307
NI4677   NI        0.556949    0.608588    0.704650     0.004307
NI4678   NI        0.565609    0.651087    0.682367     0.004307
NI4679   NI        0.591635    0.607478    0.674181     0.004307
NI4680   NI        0.598007    0.649738    0.716247     0.004307
NI4681   NI        0.624832    0.605168    0.708592     0.004307
NI4682   NI        0.633043    0.648613    0.685281     0.004307
NI4683   NI        0.666225    0.616774    0.684010     0.004307
NI4684   NI        0.667609    0.647855    0.715873     0.004307
NI4685   NI        0.700228    0.615242    0.716829     0.004307
CU4686   CU        0.698744    0.645645    0.684133     0.006663
CU4687   CU        0.736861    0.616050    0.681765     0.006663
NI4688   NI        0.732112    0.643872    0.716088     0.004307
NI4689   NI        0.768597    0.613615    0.717423     0.004307
NI4690   NI        0.768903    0.644872    0.680495     0.004307
NI4691   NI        0.800907    0.612891    0.680929     0.004307
CU4692   CU        0.181244    0.673599    0.678793     0.006663
NI4693   NI        0.215958    0.676340    0.713227     0.004307
NI4694   NI        0.214609    0.704252    0.679717     0.004307
NI4695   NI        0.245654    0.676131    0.680445     0.004307
NI4696   NI        0.249177    0.703096    0.715600     0.004307
CU4697   CU        0.282698    0.674755    0.714515     0.006663
NI4698   NI        0.279267    0.704614    0.679375     0.004307
NI4699   NI        0.315204    0.675033    0.678294     0.004307
NI4700   NI        0.313385    0.703706    0.713349     0.004307
NI4701   NI        0.356090    0.657177    0.708521     0.004307
NI4702   NI        0.358337    0.683866    0.673704     0.004307
NI4703   NI        0.392006    0.659300    0.673630     0.004307
NI4704   NI        0.386501    0.683844    0.708904     0.004307
CU4705   CU        0.422761    0.663535    0.710198     0.006663
NI4706   NI        0.417514    0.691311    0.676737     0.004307
NI4707   NI        0.454163    0.664871    0.673960     0.004307
NI4708   NI        0.458772    0.725976    0.711349     0.004307
NI4709   NI        0.498247    0.678995    0.718919     0.004307
NI4710   NI        0.492316    0.714978    0.677687     0.004307
NI4711   NI        0.529691    0.679901    0.682292     0.004307
CU4712   CU        0.531296    0.705840    0.719308     0.006663
CU4713   CU        0.563832    0.677206    0.717224     0.006663
CU4714   CU        0.562983    0.706814    0.683616     0.006663
NI4715   NI        0.597460    0.678425    0.683157     0.004307
NI4716   NI        0.596795    0.706134    0.716210     0.004307
NI4717   NI        0.631525    0.676323    0.718503     0.004307
CU4718   CU        0.629913    0.705164    0.681421     0.006663
NI4719   NI        0.667003    0.676100    0.681928     0.004307
CU4720   CU        0.667170    0.704273    0.714652     0.006663
NI4721   NI        0.702754    0.674783    0.717337     0.004307
NI4722   NI        0.700703    0.707180    0.681748     0.004307
NI4723   NI        0.732428    0.674232    0.679592     0.004307
NI4724   NI        0.247065    0.731192    0.681520     0.004307
NI4725   NI        0.282217    0.732231    0.713945     0.004307
NI4726   NI        0.281382    0.761108    0.680200     0.004307
NI4727   NI        0.314966    0.732345    0.680502     0.004307
NI4728   NI        0.313699    0.761001    0.714265     0.004307
NI4729   NI        0.354211    0.712448    0.703319     0.004307
NI4730   NI        0.348127    0.766291    0.683233     0.004307
NI4731   NI        0.382460    0.723036    0.667331     0.004307
NI4732   NI        0.382116    0.770735    0.715482     0.004307
CU4733   CU        0.421697    0.728360    0.684149     0.006663
CU4734   CU        0.415808    0.769564    0.685783     0.006663
CU4735   CU        0.461719    0.744072    0.674199     0.006663
NI4736   NI        0.456149    0.767545    0.711129     0.004307
CU4737   CU        0.494243    0.747180    0.704632     0.006663
NI4738   NI        0.489419    0.775873    0.675027     0.004307
NI4739   NI        0.533586    0.735272    0.685140     0.004307
NI4740   NI        0.531476    0.762891    0.722047     0.004307
CU4741   CU        0.564152    0.734848    0.720404     0.006663
CU4742   CU        0.564390    0.764098    0.686684     0.006663
NI4743   NI        0.597010    0.736331    0.684960     0.004307
NI4744   NI        0.599660    0.761252    0.717946     0.004307
NI4745   NI        0.632366    0.733788    0.715791     0.004307
NI4746   NI        0.632619    0.763626    0.684679     0.004307
NI4747   NI        0.662903    0.733717    0.682139     0.004307
NI4748   NI        0.382998    0.795696    0.680549     0.004307
NI4749   NI        0.450305    0.797257    0.678717     0.004307
NI4750   NI        0.531237    0.790496    0.685890     0.004307
NI4751   NI        0.421951    0.097634    0.753462     0.004307
NI4752   NI        0.492235    0.100278    0.753602     0.004307
CU4753   CU        0.285292    0.155539    0.750109     0.006663
CU4754   CU        0.317550    0.127852    0.751742     0.006663
NI4755   NI        0.318731    0.157460    0.784521     0.004307
NI4756   NI        0.352238    0.127369    0.786220     0.004307
NI4757   NI        0.353838    0.154198    0.753965     0.004307
NI4758   NI        0.387157    0.125877    0.753163     0.004307
CU4759   CU        0.387226    0.154255    0.788026     0.006663
NI4760   NI        0.422457    0.127367    0.786785     0.004307
CU4761   CU        0.422073    0.154599    0.755081     0.006663
NI4762   NI        0.456793    0.125804    0.754088     0.004307
CU4763   CU        0.456407    0.153643    0.786878     0.006663
NI4764   NI        0.490280    0.125231    0.786747     0.004307
CU4765   CU        0.492910    0.152108    0.754101     0.006663
NI4766   NI        0.527959    0.125088    0.753002     0.004307
NI4767   NI        0.526087    0.154412    0.787938     0.004307
NI4768   NI        0.562090    0.128319    0.783333     0.004307
NI4769   NI        0.561373    0.153902    0.750580     0.004307
NI4770   NI        0.593600    0.124484    0.747739     0.004307
NI4771   NI        0.596331    0.155307    0.785859     0.004307
NI4772   NI        0.631964    0.157873    0.749653     0.004307
CU4773   CU        0.222785    0.213867    0.756885     0.006663
NI4774   NI        0.255691    0.183717    0.751094     0.004307
CU4775   CU        0.255142    0.217414    0.787098     0.006663
NI4776   NI        0.285324    0.187084    0.784301     0.004307
NI4777   NI        0.285872    0.215528    0.751889     0.004307
NI4778   NI        0.316541    0.186124    0.749457     0.004307
NI4779   NI        0.317449    0.216681    0.785336     0.004307
CU4780   CU        0.353709    0.184007    0.784857     0.006663
NI4781   NI        0.353180    0.215003    0.756062     0.004307
NI4782   NI        0.385523    0.183346    0.754078     0.004307
NI4783   NI        0.387821    0.213047    0.786748     0.004307
NI4784   NI        0.421261    0.182184    0.788014     0.004307
NI4785   NI        0.421512    0.210173    0.757210     0.004307
CU4786   CU        0.460137    0.182190    0.756446     0.006663
NI4787   NI        0.457787    0.211098    0.789705     0.004307
NI4788   NI        0.490199    0.181859    0.787717     0.004307
NI4789   NI        0.495280    0.208943    0.756880     0.004307
NI4790   NI        0.525801    0.180787    0.754729     0.004307
NI4791   NI        0.529264    0.211680    0.785995     0.004307
NI4792   NI        0.560683    0.184666    0.784907     0.004307
NI4793   NI        0.562841    0.211396    0.754024     0.004307
NI4794   NI        0.596051    0.184694    0.750149     0.004307
NI4795   NI        0.595495    0.215518    0.785573     0.004307
NI4796   NI        0.628015    0.186854    0.785464     0.004307
NI4797   NI        0.631041    0.211727    0.750055     0.004307
NI4798   NI        0.665693    0.185500    0.751588     0.004307
NI4799   NI        0.662799    0.216922    0.785656     0.004307
NI4800   NI        0.696261    0.216137    0.751454     0.004307
NI4801   NI        0.146741    0.278574    0.750765     0.004307
NI4802   NI        0.176424    0.247401    0.748973     0.004307
NI4803   NI        0.177531    0.274228    0.785344     0.004307
CU4804   CU        0.214875    0.243926    0.786913     0.006663
NI4805   NI        0.232816    0.287394    0.749580     0.004307
NI4806   NI        0.249375    0.245389    0.752727     0.004307
NI4807   NI        0.246132    0.274332    0.787494     0.004307
NI4808   NI        0.284303    0.246994    0.786308     0.004307
NI4809   NI        0.277679    0.275073    0.755071     0.004307
NI4810   NI        0.316722    0.247131    0.752038     0.004307
NI4811   NI        0.316325    0.274379    0.790308     0.004307
CU4812   CU        0.349569    0.244486    0.790277     0.006663
CU4813   CU        0.347740    0.278700    0.757506     0.006663
CU4814   CU        0.383871    0.244312    0.759756     0.006663
NI4815   NI        0.389838    0.284220    0.775635     0.004307
NI4816   NI        0.422094    0.239847    0.789215     0.004307
NI4817   NI        0.423320    0.281751    0.740157     0.004307
NI4818   NI        0.457612    0.252667    0.738249     0.004307
NI4819   NI        0.457464    0.282228    0.769667     0.004307
NI4820   NI        0.493515    0.238505    0.786475     0.004307
NI4821   NI        0.488763    0.283180    0.735010     0.004307
NI4822   NI        0.507124    0.246581    0.741628     0.004307
NI4823   NI        0.529321    0.275975    0.789531     0.004307
CU4824   CU        0.563371    0.242887    0.789081     0.006663
NI4825   NI        0.564683    0.277483    0.756948     0.004307
NI4826   NI        0.596114    0.242450    0.751751     0.004307
CU4827   CU        0.598785    0.273916    0.790403     0.006663
NI4828   NI        0.629192    0.245703    0.787578     0.004307
NI4829   NI        0.633454    0.272744    0.751859     0.004307
NI4830   NI        0.666881    0.244534    0.754015     0.004307
CU4831   CU        0.666263    0.276221    0.787183     0.006663
NI4832   NI        0.701530    0.245262    0.786425     0.004307
NI4833   NI        0.698305    0.273687    0.753122     0.004307
NI4834   NI        0.731628    0.246293    0.750454     0.004307
CU4835   CU        0.731059    0.276273    0.784623     0.006663
NI4836   NI        0.767911    0.275723    0.753113     0.004307
NI4837   NI        0.110917    0.307657    0.750252     0.004307
NI4838   NI        0.110608    0.337089    0.785500     0.004307
NI4839   NI        0.146591    0.306495    0.782923     0.004307
CU4840   CU        0.141397    0.337252    0.752961     0.006663
NI4841   NI        0.178178    0.305364    0.753841     0.004307
NI4842   NI        0.176258    0.337063    0.785066     0.004307
NI4843   NI        0.210311    0.304912    0.787625     0.004307
CU4844   CU        0.209084    0.338524    0.754720     0.006663
NI4845   NI        0.247863    0.322989    0.744890     0.004307
NI4846   NI        0.242474    0.335855    0.787751     0.004307
NI4847   NI        0.275904    0.305563    0.788912     0.004307
NI4848   NI        0.290287    0.340621    0.744998     0.004307
CU4849   CU        0.324942    0.310667    0.742703     0.006663
NI4850   NI        0.324445    0.343349    0.777140     0.004307
CU4851   CU        0.356326    0.315090    0.773492     0.006663
NI4852   NI        0.357255    0.342722    0.741705     0.004307
NI4853   NI        0.389082    0.311039    0.741814     0.004307
NI4854   NI        0.389603    0.341033    0.776479     0.004307
NI4855   NI        0.422463    0.311253    0.773142     0.004307
NI4856   NI        0.420890    0.338817    0.740283     0.004307
CU4857   CU        0.456740    0.311782    0.738348     0.006663
NI4858   NI        0.460494    0.338363    0.792116     0.004307
NI4859   NI        0.490825    0.305693    0.793016     0.004307
NI4860   NI        0.491564    0.337683    0.758577     0.004307
NI4861   NI        0.527102    0.306851    0.760215     0.004307
CU4862   CU        0.527215    0.336220    0.793229     0.006663
NI4863   NI        0.562744    0.306676    0.791405     0.004307
NI4864   NI        0.555649    0.341930    0.740088     0.004307
NI4865   NI        0.590965    0.309604    0.737328     0.004307
NI4866   NI        0.596491    0.335431    0.790406     0.004307
NI4867   NI        0.633584    0.306803    0.788098     0.004307
NI4868   NI        0.622955    0.342867    0.741730     0.004307
NI4869   NI        0.666698    0.302457    0.752936     0.004307
CU4870   CU        0.666462    0.335337    0.786804     0.006663
NI4871   NI        0.699451    0.305194    0.784753     0.004307
CU4872   CU        0.686865    0.338599    0.746967     0.006663
NI4873   NI        0.733154    0.303226    0.750988     0.004307
NI4874   NI        0.733620    0.334934    0.789981     0.004307
NI4875   NI        0.763041    0.306767    0.788033     0.004307
CU4876   CU        0.761770    0.326848    0.726891     0.006663
NI4877   NI        0.798534    0.305876    0.749578     0.004307
CU4878   CU        0.800536    0.331793    0.784887     0.006663
NI4879   NI        0.078317    0.399853    0.752942     0.004307
NI4880   NI        0.110865    0.368745    0.755013     0.004307
NI4881   NI        0.113945    0.403374    0.785879     0.004307
NI4882   NI        0.142485    0.368636    0.786548     0.004307
NI4883   NI        0.143549    0.400608    0.751873     0.004307
NI4884   NI        0.175334    0.369103    0.754696     0.004307
NI4885   NI        0.177932    0.399423    0.785093     0.004307
NI4886   NI        0.208995    0.367775    0.787695     0.004307
NI4887   NI        0.210523    0.396571    0.754590     0.004307
NI4888   NI        0.241905    0.366892    0.756336     0.004307
NI4889   NI        0.242591    0.398139    0.787091     0.004307
CU4890   CU        0.288486    0.371411    0.776309     0.006663
CU4891   CU        0.289517    0.399154    0.740874     0.006663
CU4892   CU        0.320192    0.369713    0.741954     0.006663
NI4893   NI        0.320560    0.401126    0.777047     0.004307
NI4894   NI        0.354790    0.373338    0.777464     0.004307
CU4895   CU        0.354686    0.400281    0.743926     0.006663
CU4896   CU        0.388461    0.372065    0.743542     0.006663
CU4897   CU        0.389900    0.400871    0.775750     0.006663
NI4898   NI        0.421698    0.371446    0.774278     0.004307
NI4899   NI        0.422080    0.402425    0.742547     0.004307
NI4900   NI        0.463391    0.369213    0.753204     0.004307
CU4901   CU        0.462257    0.395460    0.791417     0.006663
NI4902   NI        0.494075    0.366391    0.789893     0.004307
CU4903   CU        0.489521    0.402126    0.737443     0.006663
NI4904   NI        0.521611    0.370206    0.738502     0.004307
NI4905   NI        0.525296    0.400685    0.790093     0.004307
CU4906   CU        0.553263    0.370541    0.773125     0.006663
NI4907   NI        0.554560    0.397379    0.738727     0.004307
CU4908   CU        0.588335    0.369082    0.739252     0.006663
NI4909   NI        0.599167    0.401526    0.788969     0.004307
NI4910   NI        0.632062    0.366667    0.790119     0.004307
NI4911   NI        0.619280    0.399317    0.738557     0.004307
CU4912   CU        0.652336    0.371931    0.741288     0.006663
NI4913   NI        0.648230    0.398750    0.775172     0.004307
CU4914   CU        0.678541    0.370494    0.775531     0.006663
NI4915   NI        0.689713    0.399227    0.746229     0.004307
NI4916   NI        0.720281    0.368652    0.748365     0.004307
NI4917   NI        0.740788    0.400435    0.785326     0.004307
NI4918   NI        0.770736    0.369718    0.788642     0.004307
NI4919   NI        0.771560    0.398278    0.753601     0.004307
NI4920   NI        0.802121    0.368888    0.757434     0.004307
NI4921   NI        0.801988    0.399246    0.786528     0.004307
NI4922   NI        0.832064    0.398119    0.750596     0.004307
NI4923   NI        0.079412    0.462511    0.750327     0.004307
NI4924   NI        0.109766    0.430878    0.752590     0.004307
NI4925   NI        0.107942    0.458660    0.786595     0.004307
NI4926   NI        0.143064    0.431184    0.786084     0.004307
CU4927   CU        0.142676    0.461258    0.752318     0.006663
NI4928   NI        0.177903    0.429208    0.753237     0.004307
NI4929   NI        0.177791    0.460903    0.787213     0.004307
NI4930   NI        0.210280    0.430727    0.787389     0.004307
CU4931   CU        0.208825    0.462094    0.753754     0.006663
NI4932   NI        0.243164    0.432538    0.754052     0.004307
NI4933   NI        0.242655    0.462290    0.784917     0.004307
NI4934   NI        0.288441    0.430396    0.771706     0.004307
NI4935   NI        0.290627    0.461690    0.743621     0.004307
NI4936   NI        0.323085    0.430417    0.741103     0.004307
CU4937   CU        0.319827    0.462451    0.776104     0.006663
NI4938   NI        0.354926    0.430373    0.776589     0.004307
NI4939   NI        0.356136    0.459070    0.741728     0.004307
CU4940   CU        0.386297    0.429404    0.744509     0.006663
NI4941   NI        0.387490    0.458330    0.772802     0.004307
NI4942   NI        0.419087    0.430623    0.773717     0.004307
CU4943   CU        0.422066    0.459890    0.741784     0.006663
NI4944   NI        0.454925    0.430337    0.741823     0.004307
NI4945   NI        0.460326    0.461578    0.793386     0.004307
NI4946   NI        0.492738    0.429082    0.792468     0.004307
CU4947   CU        0.490273    0.457340    0.738889     0.006663
NI4948   NI        0.525060    0.429852    0.755859     0.004307
NI4949   NI        0.524329    0.458086    0.791244     0.004307
NI4950   NI        0.560122    0.428710    0.788158     0.004307
NI4951   NI        0.555892    0.462266    0.738710     0.004307
NI4952   NI        0.598780    0.430596    0.760065     0.004307
NI4953   NI        0.598513    0.461287    0.794692     0.004307
NI4954   NI        0.632050    0.432724    0.790356     0.004307
NI4955   NI        0.625403    0.459849    0.739024     0.004307
NI4956   NI        0.654946    0.427641    0.742669     0.004307
CU4957   CU        0.666367    0.464663    0.789869     0.006663
NI4958   NI        0.677803    0.428467    0.778529     0.004307
NI4959   NI        0.684340    0.457139    0.744386     0.004307
NI4960   NI        0.740770    0.431911    0.751359     0.004307
NI4961   NI        0.737730    0.463154    0.785381     0.004307
NI4962   NI        0.769973    0.433042    0.786693     0.004307
NI4963   NI        0.770224    0.462061    0.752828     0.004307
NI4964   NI        0.803695    0.432677    0.752350     0.004307
CU4965   CU        0.801157    0.463238    0.784979     0.006663
NI4966   NI        0.832397    0.463020    0.751386     0.004307
CU4967   CU        0.110661    0.490998    0.754031     0.006663
NI4968   NI        0.110744    0.522898    0.783145     0.004307
NI4969   NI        0.144192    0.493649    0.786697     0.004307
NI4970   NI        0.143880    0.523435    0.751048     0.004307
NI4971   NI        0.174717    0.491884    0.753261     0.004307
NI4972   NI        0.177066    0.524808    0.785064     0.004307
CU4973   CU        0.211176    0.491414    0.784830     0.006663
NI4974   NI        0.206409    0.520338    0.751680     0.004307
CU4975   CU        0.239778    0.492930    0.753052     0.006663
NI4976   NI        0.242982    0.524651    0.783397     0.004307
NI4977   NI        0.280729    0.481795    0.787339     0.004307
CU4978   CU        0.288554    0.517567    0.738601     0.006663
CU4979   CU        0.321254    0.491063    0.741838     0.006663
NI4980   NI        0.318712    0.525636    0.796259     0.004307
NI4981   NI        0.359278    0.488824    0.772843     0.004307
NI4982   NI        0.353544    0.518437    0.742533     0.004307
CU4983   CU        0.388236    0.488087    0.739282     0.006663
NI4984   NI        0.387995    0.523679    0.792994     0.004307
NI4985   NI        0.422803    0.493699    0.792877     0.004307
NI4986   NI        0.422099    0.524649    0.757708     0.004307
NI4987   NI        0.457025    0.487391    0.738407     0.004307
NI4988   NI        0.453727    0.523120    0.792478     0.004307
NI4989   NI        0.492704    0.494418    0.790941     0.004307
NI4990   NI        0.489618    0.521870    0.738965     0.004307
NI4991   NI        0.524866    0.492824    0.736960     0.004307
NI4992   NI        0.523920    0.519550    0.773336     0.004307
NI4993   NI        0.557379    0.491324    0.769749     0.004307
NI4994   NI        0.557221    0.520619    0.737460     0.004307
CU4995   CU        0.591217    0.492628    0.739076     0.006663
NI4996   NI        0.590892    0.522876    0.771072     0.004307
NI4997   NI        0.630017    0.492771    0.790791     0.004307
NI4998   NI        0.623144    0.521815    0.737382     0.004307
NI4999   NI        0.669655    0.493775    0.756620     0.004307
NI5000   NI        0.659968    0.524314    0.788277     0.004307
NI5001   NI        0.701195    0.492210    0.788039     0.004307
NI5002   NI        0.694839    0.523480    0.737111     0.004307
CU5003   CU        0.737230    0.492720    0.754964     0.006663
NI5004   NI        0.735628    0.526380    0.784921     0.004307
CU5005   CU        0.768864    0.492395    0.786857     0.006663
NI5006   NI        0.767934    0.523719    0.751887     0.004307
NI5007   NI        0.800522    0.493828    0.751607     0.004307
CU5008   CU        0.800061    0.521789    0.785415     0.006663
NI5009   NI        0.112313    0.553819    0.749108     0.004307
NI5010   NI        0.144234    0.552970    0.782676     0.004307
NI5011   NI        0.144846    0.583420    0.749504     0.004307
NI5012   NI        0.177894    0.553200    0.750926     0.004307
NI5013   NI        0.177446    0.582892    0.780021     0.004307
CU5014   CU        0.210402    0.555592    0.784094     0.006663
NI5015   NI        0.211099    0.585253    0.750325     0.004307
NI5016   NI        0.256173    0.548332    0.737912     0.004307
NI5017   NI        0.254614    0.579428    0.769605     0.004307
NI5018   NI        0.289651    0.557054    0.787259     0.004307
NI5019   NI        0.286810    0.574458    0.738047     0.004307
NI5020   NI        0.320703    0.547985    0.738486     0.004307
NI5021   NI        0.316488    0.588104    0.787672     0.004307
NI5022   NI        0.351608    0.554028    0.792875     0.004307
NI5023   NI        0.354986    0.577487    0.737638     0.004307
NI5024   NI        0.389525    0.550619    0.738506     0.004307
NI5025   NI        0.383292    0.584644    0.792546     0.004307
CU5026   CU        0.420620    0.551473    0.792399     0.006663
NI5027   NI        0.423945    0.578177    0.742857     0.004307
CU5028   CU        0.456866    0.550120    0.739632     0.006663
NI5029   NI        0.454509    0.576704    0.775722     0.004307
NI5030   NI        0.487774    0.549155    0.774831     0.004307
NI5031   NI        0.488905    0.577818    0.742792     0.004307
NI5032   NI        0.521845    0.548972    0.739988     0.004307
NI5033   NI        0.523494    0.579190    0.771492     0.004307
NI5034   NI        0.555172    0.547908    0.773422     0.004307
CU5035   CU        0.556876    0.578440    0.741223     0.006663
NI5036   NI        0.590341    0.550923    0.741075     0.004307
NI5037   NI        0.586430    0.574951    0.781256     0.004307
NI5038   NI        0.626874    0.552291    0.770102     0.004307
NI5039   NI        0.637498    0.584478    0.748829     0.004307
NI5040   NI        0.658836    0.548476    0.736532     0.004307
NI5041   NI        0.663377    0.584150    0.784645     0.004307
NI5042   NI        0.700630    0.555557    0.784941     0.004307
NI5043   NI        0.698203    0.587437    0.752659     0.004307
NI5044   NI        0.736339    0.554707    0.752150     0.004307
CU5045   CU        0.729378    0.584767    0.784186     0.006663
NI5046   NI        0.767322    0.554261    0.783788     0.004307
CU5047   CU        0.767480    0.585411    0.749498     0.006663
NI5048   NI        0.797177    0.555301    0.748649     0.004307
NI5049   NI        0.179727    0.613684    0.748370     0.004307
NI5050   NI        0.212841    0.611129    0.785737     0.004307
CU5051   CU        0.215879    0.643708    0.750283     0.006663
NI5052   NI        0.245898    0.614474    0.749389     0.004307
NI5053   NI        0.246316    0.641238    0.781116     0.004307
NI5054   NI        0.279086    0.613225    0.787252     0.004307
NI5055   NI        0.277744    0.643329    0.750935     0.004307
NI5056   NI        0.320682    0.603051    0.737803     0.004307
CU5057   CU        0.317310    0.627763    0.774302     0.006663
NI5058   NI        0.355081    0.616698    0.791657     0.004307
NI5059   NI        0.353128    0.630964    0.742965     0.004307
NI5060   NI        0.388953    0.606975    0.744035     0.004307
NI5061   NI        0.387054    0.647315    0.789859     0.004307
NI5062   NI        0.424206    0.606097    0.778681     0.004307
NI5063   NI        0.423944    0.635690    0.742945     0.004307
NI5064   NI        0.458189    0.607863    0.744187     0.004307
NI5065   NI        0.460720    0.650051    0.788341     0.004307
NI5066   NI        0.493161    0.620496    0.791546     0.004307
NI5067   NI        0.492784    0.645366    0.756248     0.004307
NI5068   NI        0.527859    0.618425    0.756344     0.004307
CU5069   CU        0.526633    0.646621    0.787581     0.006663
NI5070   NI        0.561300    0.619378    0.788746     0.004307
NI5071   NI        0.563795    0.646170    0.749950     0.004307
NI5072   NI        0.601400    0.620266    0.748720     0.004307
NI5073   NI        0.595776    0.645450    0.785879     0.004307
CU5074   CU        0.629887    0.613868    0.784082     0.006663
CU5075   CU        0.632252    0.648097    0.749878     0.006663
CU5076   CU        0.665686    0.617842    0.750957     0.006663
NI5077   NI        0.662121    0.644588    0.781956     0.004307
NI5078   NI        0.698319    0.614817    0.785376     0.004307
NI5079   NI        0.699703    0.642364    0.751613     0.004307
CU5080   CU        0.733140    0.614830    0.747556     0.006663
NI5081   NI        0.248083    0.672664    0.746907     0.004307
NI5082   NI        0.299990    0.667035    0.779993     0.004307
NI5083   NI        0.283155    0.705058    0.749029     0.004307
NI5084   NI        0.316422    0.657412    0.740207     0.004307
NI5085   NI        0.316336    0.702368    0.785541     0.004307
NI5086   NI        0.346639    0.656358    0.777235     0.004307
NI5087   NI        0.349071    0.685130    0.738945     0.004307
NI5088   NI        0.386115    0.658467    0.744369     0.004307
NI5089   NI        0.364766    0.701322    0.778758     0.004307
NI5090   NI        0.422447    0.673793    0.788865     0.004307
NI5091   NI        0.424360    0.701656    0.717784     0.004307
NI5092   NI        0.456070    0.663513    0.742977     0.004307
NI5093   NI        0.462090    0.706083    0.788793     0.004307
NI5094   NI        0.493637    0.675224    0.786887     0.004307
NI5095   NI        0.495675    0.704170    0.755552     0.004307
NI5096   NI        0.529683    0.676958    0.751967     0.004307
NI5097   NI        0.529890    0.705102    0.785863     0.004307
NI5098   NI        0.562610    0.672984    0.783868     0.004307
CU5099   CU        0.564949    0.704111    0.750304     0.006663
NI5100   NI        0.597071    0.675713    0.750633     0.004307
NI5101   NI        0.597330    0.703028    0.783266     0.004307
NI5102   NI        0.633283    0.676174    0.785046     0.004307
CU5103   CU        0.632053    0.704969    0.748985     0.006663
NI5104   NI        0.667231    0.674361    0.750110     0.004307
NI5105   NI        0.312658    0.734508    0.749702     0.004307
NI5106   NI        0.343047    0.736542    0.786635     0.004307
NI5107   NI        0.383872    0.711585    0.739625     0.004307
NI5108   NI        0.426152    0.706483    0.760821     0.004307
NI5109   NI        0.423946    0.736777    0.790092     0.004307
NI5110   NI        0.461103    0.735316    0.755567     0.004307
CU5111   CU        0.497953    0.734191    0.786883     0.006663
NI5112   NI        0.496946    0.761594    0.751299     0.004307
NI5113   NI        0.528993    0.733858    0.752480     0.004307
NI5114   NI        0.563615    0.733130    0.784255     0.004307
NI5115   NI        0.597943    0.732393    0.752635     0.004307
NI5116   NI        0.351705    0.156863    0.817924     0.004307
NI5117   NI        0.422453    0.154836    0.819566     0.004307
NI5118   NI        0.492606    0.155261    0.819836     0.004307
NI5119   NI        0.561860    0.157710    0.816277     0.004307
NI5120   NI        0.284727    0.217110    0.819199     0.004307
NI5121   NI        0.316953    0.186747    0.816670     0.004307
NI5122   NI        0.317775    0.215217    0.848685     0.004307
NI5123   NI        0.352428    0.213003    0.818403     0.004307
NI5124   NI        0.387903    0.185017    0.818896     0.004307
NI5125   NI        0.385510    0.213575    0.852422     0.004307
NI5126   NI        0.418783    0.183577    0.852222     0.004307
NI5127   NI        0.420731    0.212266    0.819769     0.004307
NI5128   NI        0.456983    0.181627    0.821550     0.004307
NI5129   NI        0.457569    0.213571    0.853011     0.004307
NI5130   NI        0.491332    0.182909    0.852392     0.004307
CU5131   CU        0.492251    0.212026    0.819058     0.006663
NI5132   NI        0.525410    0.183757    0.820585     0.004307
NI5133   NI        0.523883    0.215085    0.851958     0.004307
CU5134   CU        0.561517    0.215100    0.818914     0.006663
NI5135   NI        0.593725    0.185206    0.817490     0.004307
NI5136   NI        0.594893    0.215303    0.852767     0.004307
NI5137   NI        0.627840    0.213757    0.818408     0.004307
NI5138   NI        0.214681    0.274780    0.818663     0.004307
CU5139   CU        0.247958    0.246364    0.818340     0.006663
NI5140   NI        0.247252    0.275202    0.852003     0.004307
CU5141   CU        0.281179    0.246395    0.849048     0.006663
NI5142   NI        0.279410    0.277621    0.820593     0.004307
NI5143   NI        0.317887    0.244813    0.820856     0.004307
NI5144   NI        0.313600    0.276016    0.852796     0.004307
NI5145   NI        0.350996    0.243342    0.851157     0.004307
NI5146   NI        0.349991    0.273284    0.822855     0.004307
NI5147   NI        0.386322    0.242086    0.818675     0.004307
NI5148   NI        0.383037    0.271920    0.854523     0.004307
CU5149   CU        0.420945    0.242843    0.852942     0.006663
NI5150   NI        0.424901    0.271875    0.822995     0.004307
CU5151   CU        0.456981    0.244392    0.822016     0.006663
NI5152   NI        0.457885    0.275514    0.853516     0.004307
NI5153   NI        0.492516    0.244866    0.852412     0.004307
NI5154   NI        0.494009    0.275040    0.822354     0.004307
NI5155   NI        0.526552    0.245449    0.820814     0.004307
NI5156   NI        0.525903    0.276682    0.853712     0.004307
NI5157   NI        0.562215    0.244923    0.853047     0.004307
NI5158   NI        0.564023    0.274035    0.820998     0.004307
NI5159   NI        0.594915    0.245885    0.822142     0.004307
NI5160   NI        0.595698    0.275006    0.852509     0.004307
NI5161   NI        0.632540    0.242686    0.848610     0.004307
NI5162   NI        0.632709    0.275973    0.820813     0.004307
CU5163   CU        0.667576    0.247810    0.819107     0.006663
NI5164   NI        0.666889    0.273516    0.851915     0.004307
NI5165   NI        0.698492    0.276998    0.820481     0.004307
NI5166   NI        0.146316    0.337501    0.817882     0.004307
NI5167   NI        0.180293    0.303817    0.818285     0.004307
NI5168   NI        0.213086    0.305928    0.850719     0.004307
CU5169   CU        0.209393    0.335733    0.819821     0.006663
NI5170   NI        0.246002    0.306234    0.822077     0.004307
NI5171   NI        0.245615    0.336530    0.852176     0.004307
NI5172   NI        0.277645    0.305732    0.856935     0.004307
NI5173   NI        0.277348    0.335149    0.820313     0.004307
NI5174   NI        0.312739    0.303962    0.821882     0.004307
CU5175   CU        0.309089    0.334402    0.854979     0.006663
CU5176   CU        0.347406    0.301823    0.854927     0.006663
NI5177   NI        0.356365    0.341862    0.808189     0.004307
CU5178   CU        0.391730    0.315160    0.810761     0.006663
NI5179   NI        0.386791    0.339826    0.859482     0.004307
NI5180   NI        0.421204    0.307216    0.853200     0.004307
NI5181   NI        0.426821    0.338837    0.826500     0.004307
NI5182   NI        0.460033    0.308890    0.824373     0.004307
CU5183   CU        0.458600    0.336440    0.857338     0.006663
NI5184   NI        0.493522    0.306698    0.854492     0.004307
CU5185   CU        0.491431    0.336924    0.824328     0.006663
NI5186   NI        0.529222    0.305744    0.821574     0.004307
NI5187   NI        0.526450    0.337992    0.852433     0.004307
NI5188   NI        0.562110    0.305623    0.853053     0.004307
NI5189   NI        0.563499    0.336709    0.822214     0.004307
NI5190   NI        0.596865    0.305528    0.820992     0.004307
NI5191   NI        0.596807    0.336402    0.853180     0.004307
NI5192   NI        0.632307    0.304857    0.850401     0.004307
NI5193   NI        0.631717    0.336859    0.820363     0.004307
CU5194   CU        0.666999    0.305691    0.818368     0.006663
CU5195   CU        0.665096    0.336685    0.852324     0.006663
NI5196   NI        0.698576    0.309660    0.851573     0.004307
NI5197   NI        0.699937    0.335736    0.820638     0.004307
NI5198   NI        0.732925    0.306312    0.821965     0.004307
NI5199   NI        0.768392    0.340187    0.817134     0.004307
NI5200   NI        0.146470    0.398897    0.818463     0.004307
NI5201   NI        0.177917    0.366572    0.820027     0.004307
NI5202   NI        0.216135    0.392544    0.885274     0.004307
CU5203   CU        0.213037    0.363577    0.852033     0.006663
CU5204   CU        0.211891    0.397450    0.819758     0.006663
NI5205   NI        0.244753    0.367000    0.819228     0.004307
NI5206   NI        0.244580    0.393298    0.850814     0.004307
NI5207   NI        0.277304    0.366097    0.855366     0.004307
NI5208   NI        0.286357    0.403931    0.807275     0.004307
NI5209   NI        0.321560    0.371861    0.809412     0.004307
NI5210   NI        0.320604    0.400904    0.862688     0.004307
NI5211   NI        0.355801    0.369114    0.864120     0.004307
NI5212   NI        0.352668    0.402684    0.810647     0.004307
CU5213   CU        0.395230    0.368206    0.814156     0.006663
NI5214   NI        0.389549    0.396810    0.859281     0.004307
CU5215   CU        0.422832    0.368444    0.855872     0.006663
NI5216   NI        0.423018    0.398964    0.827923     0.004307
CU5217   CU        0.459955    0.367025    0.824026     0.006663
CU5218   CU        0.458564    0.400446    0.854770     0.006663
NI5219   NI        0.492438    0.366614    0.853025     0.004307
NI5220   NI        0.493687    0.398684    0.824295     0.004307
CU5221   CU        0.527465    0.369373    0.821126     0.006663
CU5222   CU        0.528107    0.398208    0.853529     0.006663
NI5223   NI        0.563858    0.367353    0.853799     0.004307
CU5224   CU        0.561885    0.397920    0.820794     0.006663
NI5225   NI        0.598502    0.369523    0.820774     0.004307
CU5226   CU        0.596340    0.400686    0.851536     0.006663
CU5227   CU        0.630643    0.366749    0.852923     0.006663
NI5228   NI        0.632303    0.400840    0.817786     0.004307
NI5229   NI        0.665931    0.364699    0.822336     0.004307
NI5230   NI        0.662340    0.398688    0.852170     0.004307
CU5231   CU        0.698744    0.366955    0.852947     0.006663
NI5232   NI        0.678257    0.399118    0.807598     0.004307
NI5233   NI        0.737294    0.369788    0.818729     0.004307
NI5234   NI        0.734187    0.398881    0.850970     0.004307
NI5235   NI        0.768581    0.399690    0.819839     0.004307
NI5236   NI        0.142335    0.463821    0.818564     0.004307
NI5237   NI        0.175742    0.430516    0.818006     0.004307
NI5238   NI        0.177777    0.463167    0.847869     0.004307
NI5239   NI        0.224522    0.426890    0.860085     0.004307
NI5240   NI        0.211506    0.462035    0.818237     0.004307
NI5241   NI        0.245111    0.429428    0.818182     0.004307
NI5242   NI        0.254330    0.461323    0.864244     0.004307
CU5243   CU        0.288976    0.431813    0.860032     0.006663
NI5244   NI        0.282332    0.458974    0.827173     0.004307
NI5245   NI        0.317056    0.431105    0.826741     0.004307
NI5246   NI        0.319274    0.461494    0.856776     0.004307
NI5247   NI        0.354522    0.428107    0.856426     0.004307
CU5248   CU        0.357752    0.459936    0.826694     0.006663
NI5249   NI        0.389675    0.430444    0.810861     0.004307
CU5250   CU        0.389434    0.463238    0.856762     0.006663
CU5251   CU        0.421335    0.430786    0.855502     0.006663
NI5252   NI        0.422336    0.462787    0.823699     0.004307
CU5253   CU        0.454730    0.429209    0.822738     0.006663
NI5254   NI        0.456748    0.461365    0.855570     0.004307
NI5255   NI        0.491079    0.429632    0.854566     0.004307
NI5256   NI        0.491824    0.458572    0.823409     0.004307
NI5257   NI        0.523213    0.429300    0.824907     0.004307
CU5258   CU        0.524451    0.459064    0.855170     0.006663
CU5259   CU        0.560200    0.430571    0.852672     0.006663
NI5260   NI        0.562994    0.459276    0.821490     0.004307
NI5261   NI        0.597388    0.429452    0.819774     0.004307
CU5262   CU        0.598128    0.458911    0.851780     0.006663
CU5263   CU        0.629556    0.429815    0.850568     0.006663
CU5264   CU        0.634305    0.462813    0.821416     0.006663
CU5265   CU        0.666546    0.433652    0.820065     0.006663
NI5266   NI        0.667087    0.461434    0.853568     0.004307
NI5267   NI        0.703032    0.434058    0.850590     0.004307
NI5268   NI        0.701016    0.463653    0.819708     0.004307
NI5269   NI        0.739944    0.431963    0.819573     0.004307
CU5270   CU        0.735414    0.464740    0.851374     0.006663
NI5271   NI        0.767631    0.463759    0.818669     0.004307
NI5272   NI        0.144162    0.524101    0.814915     0.004307
NI5273   NI        0.178131    0.492569    0.816813     0.004307
NI5274   NI        0.212716    0.495789    0.847847     0.004307
CU5275   CU        0.213177    0.525440    0.816391     0.006663
NI5276   NI        0.245224    0.493428    0.815725     0.004307
NI5277   NI        0.245108    0.525675    0.848867     0.004307
NI5278   NI        0.289442    0.489850    0.860014     0.004307
NI5279   NI        0.278741    0.527408    0.816546     0.004307
CU5280   CU        0.316254    0.483308    0.818550     0.006663
CU5281   CU        0.323005    0.525950    0.858972     0.006663
NI5282   NI        0.352062    0.494245    0.854405     0.004307
CU5283   CU        0.353884    0.524576    0.826090     0.006663
NI5284   NI        0.388999    0.494206    0.826019     0.004307
NI5285   NI        0.387057    0.523504    0.855387     0.004307
NI5286   NI        0.423466    0.492420    0.856543     0.004307
CU5287   CU        0.421975    0.522759    0.825794     0.006663
NI5288   NI        0.457736    0.492407    0.824969     0.004307
NI5289   NI        0.456310    0.520202    0.855666     0.004307
CU5290   CU        0.490551    0.489449    0.854771     0.006663
CU5291   CU        0.490155    0.522364    0.825832     0.006663
NI5292   NI        0.522978    0.490938    0.826598     0.004307
NI5293   NI        0.524812    0.522329    0.854522     0.004307
CU5294   CU        0.561051    0.490118    0.851918     0.006663
NI5295   NI        0.550536    0.526199    0.818423     0.004307
CU5296   CU        0.597261    0.490904    0.821638     0.006663
NI5297   NI        0.586005    0.523332    0.844563     0.004307
NI5298   NI        0.632602    0.489073    0.851887     0.004307
NI5299   NI        0.628365    0.523444    0.824511     0.004307
NI5300   NI        0.668186    0.493004    0.820300     0.004307
NI5301   NI        0.664983    0.523151    0.850555     0.004307
NI5302   NI        0.703089    0.492930    0.852809     0.004307
NI5303   NI        0.698778    0.523161    0.817629     0.004307
NI5304   NI        0.736141    0.494341    0.820151     0.004307
NI5305   NI        0.766701    0.525033    0.817715     0.004307
CU5306   CU        0.177065    0.554186    0.815413     0.006663
NI5307   NI        0.208795    0.556119    0.849047     0.004307
CU5308   CU        0.211098    0.582877    0.817192     0.006663
CU5309   CU        0.245894    0.554514    0.817758     0.006663
NI5310   NI        0.245816    0.584795    0.850332     0.004307
CU5311   CU        0.280835    0.557080    0.849055     0.006663
NI5312   NI        0.284044    0.586168    0.820388     0.004307
NI5313   NI        0.320606    0.555449    0.822523     0.004307
NI5314   NI        0.316691    0.586026    0.851380     0.004307
NI5315   NI        0.352814    0.556549    0.854087     0.004307
CU5316   CU        0.350507    0.585223    0.821719     0.006663
CU5317   CU        0.386352    0.554512    0.823086     0.006663
NI5318   NI        0.385743    0.586642    0.852466     0.004307
CU5319   CU        0.421643    0.553718    0.853707     0.006663
NI5320   NI        0.421399    0.586248    0.820894     0.004307
NI5321   NI        0.454432    0.551602    0.823540     0.004307
NI5322   NI        0.456473    0.585714    0.852414     0.004307
NI5323   NI        0.491395    0.555274    0.852685     0.004307
NI5324   NI        0.493229    0.588382    0.824703     0.004307
NI5325   NI        0.517796    0.550263    0.807674     0.004307
NI5326   NI        0.528863    0.587542    0.856659     0.004307
NI5327   NI        0.560775    0.555472    0.852047     0.004307
NI5328   NI        0.563140    0.588992    0.820349     0.004307
NI5329   NI        0.595787    0.558791    0.825747     0.004307
CU5330   CU        0.598005    0.589547    0.851373     0.006663
NI5331   NI        0.632211    0.557032    0.851184     0.004307
NI5332   NI        0.631118    0.586698    0.819951     0.004307
NI5333   NI        0.665181    0.554925    0.818367     0.004307
NI5334   NI        0.666120    0.585377    0.848983     0.004307
CU5335   CU        0.696504    0.554523    0.848389     0.006663
NI5336   NI        0.698636    0.584923    0.815944     0.004307
NI5337   NI        0.731927    0.554638    0.816302     0.004307
NI5338   NI        0.245253    0.614691    0.818362     0.004307
NI5339   NI        0.281811    0.616226    0.851169     0.004307
NI5340   NI        0.280580    0.642004    0.818279     0.004307
NI5341   NI        0.319336    0.615462    0.819201     0.004307
CU5342   CU        0.314806    0.644770    0.848999     0.006663
NI5343   NI        0.349868    0.618182    0.853547     0.004307
NI5344   NI        0.352099    0.644816    0.822913     0.004307
NI5345   NI        0.386408    0.616500    0.823551     0.004307
NI5346   NI        0.388554    0.646906    0.850576     0.004307
NI5347   NI        0.422329    0.615099    0.853206     0.004307
NI5348   NI        0.421368    0.646122    0.819941     0.004307
NI5349   NI        0.455642    0.615524    0.819998     0.004307
NI5350   NI        0.455514    0.646420    0.852430     0.004307
NI5351   NI        0.493556    0.615747    0.856765     0.004307
NI5352   NI        0.491272    0.648566    0.821726     0.004307
NI5353   NI        0.528793    0.617700    0.820712     0.004307
NI5354   NI        0.529460    0.647276    0.850497     0.004307
NI5355   NI        0.564504    0.619759    0.851910     0.004307
NI5356   NI        0.564291    0.646948    0.820350     0.004307
CU5357   CU        0.597347    0.616274    0.817754     0.006663
NI5358   NI        0.599473    0.646512    0.848498     0.004307
NI5359   NI        0.633226    0.616842    0.849249     0.004307
NI5360   NI        0.630592    0.644040    0.814944     0.004307
NI5361   NI        0.663332    0.614929    0.815300     0.004307
NI5362   NI        0.314311    0.675740    0.821079     0.004307
CU5363   CU        0.350797    0.703079    0.820872     0.006663
NI5364   NI        0.388123    0.680339    0.817542     0.004307
NI5365   NI        0.422269    0.675797    0.848868     0.004307
NI5366   NI        0.426130    0.705179    0.818144     0.004307
NI5367   NI        0.459970    0.677793    0.823036     0.004307
NI5368   NI        0.494516    0.675646    0.851734     0.004307
NI5369   NI        0.495593    0.704156    0.819410     0.004307
NI5370   NI        0.529839    0.677607    0.819868     0.004307
CU5371   CU        0.564516    0.703803    0.815135     0.006663
NI5372   NI        0.597062    0.674598    0.814306     0.004307
NI5373   NI        0.349207    0.274471    0.884045     0.004307
NI5374   NI        0.351253    0.209681    0.879886     0.004307
NI5375   NI        0.422147    0.275896    0.883656     0.004307
NI5376   NI        0.456615    0.246168    0.881879     0.004307
NI5377   NI        0.493306    0.275012    0.884220     0.004307
NI5378   NI        0.527607    0.245089    0.884295     0.004307
NI5379   NI        0.563638    0.276136    0.884937     0.004307
NI5380   NI        0.279143    0.337899    0.885570     0.004307
NI5381   NI        0.314704    0.303628    0.885213     0.004307
CU5382   CU        0.347885    0.334930    0.884733     0.006663
NI5383   NI        0.385161    0.304474    0.883485     0.004307
NI5384   NI        0.385807    0.335211    0.911630     0.004307
NI5385   NI        0.422062    0.306768    0.916160     0.004307
NI5386   NI        0.422799    0.337034    0.887101     0.004307
NI5387   NI        0.459149    0.306612    0.888962     0.004307
NI5388   NI        0.456201    0.335140    0.918794     0.004307
NI5389   NI        0.494419    0.307768    0.917752     0.004307
NI5390   NI        0.494310    0.335713    0.886295     0.004307
NI5391   NI        0.525964    0.305754    0.884963     0.004307
NI5392   NI        0.526063    0.336978    0.916187     0.004307
NI5393   NI        0.561317    0.334024    0.885425     0.004307
NI5394   NI        0.598131    0.306102    0.883421     0.004307
NI5395   NI        0.630381    0.335195    0.883677     0.004307
NI5396   NI        0.251869    0.332101    0.925035     0.004307
NI5397   NI        0.280124    0.395067    0.887224     0.004307
NI5398   NI        0.313392    0.365130    0.886756     0.004307
NI5399   NI        0.319830    0.397974    0.910952     0.004307
NI5400   NI        0.351628    0.367401    0.911701     0.004307
CU5401   CU        0.357968    0.401688    0.889598     0.006663
CU5402   CU        0.393162    0.368569    0.889394     0.006663
CU5403   CU        0.388762    0.400485    0.919095     0.006663
NI5404   NI        0.427045    0.369347    0.921401     0.004307
NI5405   NI        0.423579    0.398928    0.888604     0.004307
CU5406   CU        0.455821    0.367764    0.887704     0.006663
CU5407   CU        0.460783    0.398890    0.915705     0.006663
NI5408   NI        0.491687    0.366468    0.915216     0.004307
NI5409   NI        0.493747    0.400036    0.885183     0.004307
CU5410   CU        0.528370    0.366310    0.885101     0.006663
NI5411   NI        0.529350    0.401312    0.914391     0.004307
NI5412   NI        0.562279    0.365801    0.914109     0.004307
NI5413   NI        0.565160    0.398475    0.884292     0.004307
CU5414   CU        0.597513    0.367318    0.884515     0.006663
NI5415   NI        0.597812    0.399511    0.912638     0.004307
NI5416   NI        0.631737    0.401478    0.883270     0.004307
NI5417   NI        0.661731    0.367197    0.884053     0.004307
CU5418   CU        0.257554    0.431552    0.893954     0.006663
NI5419   NI        0.290861    0.459514    0.890586     0.004307
CU5420   CU        0.319683    0.430895    0.889429     0.006663
NI5421   NI        0.323089    0.460414    0.919560     0.004307
NI5422   NI        0.354959    0.431634    0.918702     0.004307
NI5423   NI        0.355115    0.461792    0.885863     0.004307
NI5424   NI        0.388830    0.429524    0.887619     0.004307
NI5425   NI        0.388317    0.459857    0.918594     0.004307
NI5426   NI        0.423317    0.428528    0.917276     0.004307
NI5427   NI        0.423317    0.462109    0.887514     0.004307
NI5428   NI        0.457059    0.428428    0.887569     0.004307
NI5429   NI        0.459146    0.461237    0.919529     0.004307
NI5430   NI        0.490557    0.428508    0.917082     0.004307
NI5431   NI        0.492545    0.460830    0.888333     0.004307
NI5432   NI        0.528201    0.430960    0.887183     0.004307
NI5433   NI        0.530250    0.462609    0.916196     0.004307
NI5434   NI        0.565097    0.429210    0.916742     0.004307
CU5435   CU        0.562977    0.460750    0.884536     0.006663
NI5436   NI        0.597916    0.432150    0.882551     0.004307
NI5437   NI        0.596073    0.463095    0.915040     0.004307
CU5438   CU        0.630895    0.461012    0.883558     0.006663
CU5439   CU        0.662884    0.432549    0.884367     0.006663
NI5440   NI        0.248485    0.497893    0.882520     0.004307
NI5441   NI        0.280453    0.526437    0.879837     0.004307
NI5442   NI        0.322752    0.490317    0.889200     0.004307
NI5443   NI        0.356531    0.489059    0.921666     0.004307
NI5444   NI        0.355498    0.519774    0.888416     0.004307
CU5445   CU        0.391326    0.491343    0.889260     0.006663
NI5446   NI        0.389822    0.522166    0.917436     0.004307
NI5447   NI        0.423652    0.491241    0.918012     0.004307
NI5448   NI        0.423687    0.522518    0.885072     0.004307
NI5449   NI        0.457141    0.492283    0.886890     0.004307
NI5450   NI        0.457400    0.520708    0.917411     0.004307
NI5451   NI        0.493648    0.492067    0.917594     0.004307
NI5452   NI        0.493277    0.521817    0.885842     0.004307
NI5453   NI        0.527370    0.490512    0.885194     0.004307
NI5454   NI        0.528746    0.518690    0.918680     0.004307
NI5455   NI        0.564068    0.491966    0.913116     0.004307
NI5456   NI        0.560649    0.521522    0.884100     0.004307
NI5457   NI        0.596747    0.490157    0.879437     0.004307
NI5458   NI        0.620408    0.524324    0.871701     0.004307
NI5459   NI        0.669003    0.495353    0.881333     0.004307
CU5460   CU        0.313037    0.557825    0.882094     0.006663
NI5461   NI        0.352619    0.587323    0.882369     0.004307
NI5462   NI        0.388101    0.554921    0.883295     0.004307
NI5463   NI        0.419216    0.551820    0.916272     0.004307
NI5464   NI        0.421478    0.584365    0.883546     0.004307
NI5465   NI        0.455808    0.553697    0.884025     0.004307
NI5466   NI        0.489154    0.552919    0.914747     0.004307
NI5467   NI        0.488493    0.584609    0.885358     0.004307
NI5468   NI        0.524838    0.552321    0.883663     0.004307
CU5469   CU        0.565542    0.586030    0.882578     0.006663
CU5470   CU        0.595362    0.556741    0.878699     0.006663
NI5471   NI        0.384654    0.617962    0.884287     0.004307
NI5472   NI        0.454960    0.616050    0.883463     0.004307
CU5473   CU        0.532710    0.620663    0.883337     0.006663
