data_00001
_audit_creation_method   'DISCUS'

_data_chemical_name_common 'Au.cell: lattice parameter from Pearson85'

_cell_length_a             69.3413
_cell_length_b             69.3413
_cell_length_c             69.3413
_cell_angle_alpha     90.0000
_cell_angle_beta      90.0000
_cell_angle_gamma     90.0000

_symmetry_space_group_name_H-M   'P1              '

loop_
_atom_site_label
_atom_site_symbol
_atom_site_fract_x
_atom_site_fract_y
_atom_site_fract_z
_atom_site_u_iso_or_equiv
PD2398   PD        0.412353    0.324118    0.147647     0.005394
PD2402   PD        0.471176    0.324118    0.147647     0.005394
PD2406   PD        0.530000    0.324118    0.147647     0.005394
AU2458   AU        0.353529    0.382941    0.147647     0.007504
AU2459   AU        0.382941    0.353529    0.147647     0.007504
PD2462   PD        0.412353    0.382941    0.147647     0.005394
AU2463   AU        0.441765    0.353529    0.147647     0.007504
PD2466   PD        0.471176    0.382941    0.147647     0.005394
PD2467   PD        0.500588    0.353529    0.147647     0.005394
AU2470   AU        0.530000    0.382941    0.147647     0.007504
AU2471   AU        0.559412    0.353529    0.147647     0.007504
PD2474   PD        0.588824    0.382941    0.147647     0.005394
AU2519   AU        0.324118    0.412353    0.147647     0.007504
PD2522   PD        0.353529    0.441765    0.147647     0.005394
AU2523   AU        0.382941    0.412353    0.147647     0.007504
PD2526   PD        0.412353    0.441765    0.147647     0.005394
PD2527   PD        0.441765    0.412353    0.147647     0.005394
PD2528   PD        0.441765    0.441765    0.118235     0.005394
AU2529   AU        0.471176    0.412353    0.118235     0.007504
PD2530   PD        0.471176    0.441765    0.147647     0.005394
AU2531   AU        0.500588    0.412353    0.147647     0.007504
AU2532   AU        0.500588    0.441765    0.118235     0.007504
PD2534   PD        0.530000    0.441765    0.147647     0.005394
AU2535   AU        0.559412    0.412353    0.147647     0.007504
AU2538   AU        0.588824    0.441765    0.147647     0.007504
PD2539   PD        0.618235    0.412353    0.147647     0.005394
PD2583   PD        0.324118    0.471176    0.147647     0.005394
AU2586   AU        0.353529    0.500588    0.147647     0.007504
PD2587   PD        0.382941    0.471176    0.147647     0.005394
AU2589   AU        0.412353    0.471176    0.118235     0.007504
PD2590   PD        0.412353    0.500588    0.147647     0.005394
PD2591   PD        0.441765    0.471176    0.147647     0.005394
AU2592   AU        0.441765    0.500588    0.118235     0.007504
PD2593   PD        0.471176    0.471176    0.118235     0.005394
PD2594   PD        0.471176    0.500588    0.147647     0.005394
AU2595   AU        0.500588    0.471176    0.147647     0.007504
AU2596   AU        0.500588    0.500588    0.118235     0.007504
PD2597   PD        0.530000    0.471176    0.118235     0.005394
PD2598   PD        0.530000    0.500588    0.147647     0.005394
PD2599   PD        0.559412    0.471176    0.147647     0.005394
AU2602   AU        0.588824    0.500588    0.147647     0.007504
AU2603   AU        0.618235    0.471176    0.147647     0.007504
PD2647   PD        0.324118    0.530000    0.147647     0.005394
AU2650   AU        0.353529    0.559412    0.147647     0.007504
PD2651   PD        0.382941    0.530000    0.147647     0.005394
PD2654   PD        0.412353    0.559412    0.147647     0.005394
PD2655   PD        0.441765    0.530000    0.147647     0.005394
PD2657   PD        0.471176    0.530000    0.118235     0.005394
PD2658   PD        0.471176    0.559412    0.147647     0.005394
AU2659   AU        0.500588    0.530000    0.147647     0.007504
PD2662   PD        0.530000    0.559412    0.147647     0.005394
AU2663   AU        0.559412    0.530000    0.147647     0.007504
PD2666   PD        0.588824    0.559412    0.147647     0.005394
PD2667   PD        0.618235    0.530000    0.147647     0.005394
AU2715   AU        0.382941    0.588824    0.147647     0.007504
PD2718   PD        0.412353    0.618235    0.147647     0.005394
PD2719   PD        0.441765    0.588824    0.147647     0.005394
AU2722   AU        0.471176    0.618235    0.147647     0.007504
AU2723   AU        0.500588    0.588824    0.147647     0.007504
PD2726   PD        0.530000    0.618235    0.147647     0.005394
PD2727   PD        0.559412    0.588824    0.147647     0.005394
PD3354   PD        0.353529    0.265294    0.206471     0.005394
PD3358   PD        0.412353    0.265294    0.206471     0.005394
AU3359   AU        0.441765    0.235882    0.206471     0.007504
PD3360   PD        0.441765    0.265294    0.177059     0.005394
AU3362   AU        0.471176    0.265294    0.206471     0.007504
AU3363   AU        0.500588    0.235882    0.206471     0.007504
AU3364   AU        0.500588    0.265294    0.177059     0.007504
AU3366   AU        0.530000    0.265294    0.206471     0.007504
PD3370   PD        0.588824    0.265294    0.206471     0.005394
PD3414   PD        0.294706    0.324118    0.206471     0.005394
AU3415   AU        0.324118    0.294706    0.206471     0.007504
AU3416   AU        0.324118    0.324118    0.177059     0.007504
AU3418   AU        0.353529    0.324118    0.206471     0.007504
PD3419   PD        0.382941    0.294706    0.206471     0.005394
AU3420   AU        0.382941    0.324118    0.177059     0.007504
AU3421   AU        0.412353    0.294706    0.177059     0.007504
PD3422   PD        0.412353    0.324118    0.206471     0.005394
PD3423   PD        0.441765    0.294706    0.206471     0.005394
AU3424   AU        0.441765    0.324118    0.177059     0.007504
PD3425   PD        0.471176    0.294706    0.177059     0.005394
PD3426   PD        0.471176    0.324118    0.206471     0.005394
PD3427   PD        0.500588    0.294706    0.206471     0.005394
AU3428   AU        0.500588    0.324118    0.177059     0.007504
PD3429   PD        0.530000    0.294706    0.177059     0.005394
AU3430   AU        0.530000    0.324118    0.206471     0.007504
AU3431   AU        0.559412    0.294706    0.206471     0.007504
AU3432   AU        0.559412    0.324118    0.177059     0.007504
PD3434   PD        0.588824    0.324118    0.206471     0.005394
AU3435   AU        0.618235    0.294706    0.206471     0.007504
PD3436   PD        0.618235    0.324118    0.177059     0.005394
AU3438   AU        0.647647    0.324118    0.206471     0.007504
PD3475   PD        0.265294    0.353529    0.206471     0.005394
AU3478   AU        0.294706    0.382941    0.206471     0.007504
AU3479   AU        0.324118    0.353529    0.206471     0.007504
AU3480   AU        0.324118    0.382941    0.177059     0.007504
AU3481   AU        0.353529    0.353529    0.177059     0.007504
AU3482   AU        0.353529    0.382941    0.206471     0.007504
PD3483   PD        0.382941    0.353529    0.206471     0.005394
PD3484   PD        0.382941    0.382941    0.177059     0.005394
PD3485   PD        0.412353    0.353529    0.177059     0.005394
PD3486   PD        0.412353    0.382941    0.206471     0.005394
PD3487   PD        0.441765    0.353529    0.206471     0.005394
AU3488   AU        0.441765    0.382941    0.177059     0.007504
PD3489   PD        0.471176    0.353529    0.177059     0.005394
AU3490   AU        0.471176    0.382941    0.206471     0.007504
PD3491   PD        0.500588    0.353529    0.206471     0.005394
PD3492   PD        0.500588    0.382941    0.177059     0.005394
PD3493   PD        0.530000    0.353529    0.177059     0.005394
AU3494   AU        0.530000    0.382941    0.206471     0.007504
PD3495   PD        0.559412    0.353529    0.206471     0.005394
AU3496   AU        0.559412    0.382941    0.177059     0.007504
AU3497   AU        0.588824    0.353529    0.177059     0.007504
AU3498   AU        0.588824    0.382941    0.206471     0.007504
AU3499   AU        0.618235    0.353529    0.206471     0.007504
AU3500   AU        0.618235    0.382941    0.177059     0.007504
AU3502   AU        0.647647    0.382941    0.206471     0.007504
PD3503   PD        0.677059    0.353529    0.206471     0.005394
AU3538   AU        0.235882    0.441765    0.206471     0.007504
PD3539   PD        0.265294    0.412353    0.206471     0.005394
PD3540   PD        0.265294    0.441765    0.177059     0.005394
PD3541   PD        0.294706    0.412353    0.177059     0.005394
PD3542   PD        0.294706    0.441765    0.206471     0.005394
PD3543   PD        0.324118    0.412353    0.206471     0.005394
PD3544   PD        0.324118    0.441765    0.177059     0.005394
PD3545   PD        0.353529    0.412353    0.177059     0.005394
AU3546   AU        0.353529    0.441765    0.206471     0.007504
PD3547   PD        0.382941    0.412353    0.206471     0.005394
AU3548   AU        0.382941    0.441765    0.177059     0.007504
PD3549   PD        0.412353    0.412353    0.177059     0.005394
AU3550   AU        0.412353    0.441765    0.206471     0.007504
AU3551   AU        0.441765    0.412353    0.206471     0.007504
PD3552   PD        0.441765    0.441765    0.177059     0.005394
PD3553   PD        0.471176    0.412353    0.177059     0.005394
PD3554   PD        0.471176    0.441765    0.206471     0.005394
PD3555   PD        0.500588    0.412353    0.206471     0.005394
PD3556   PD        0.500588    0.441765    0.177059     0.005394
AU3557   AU        0.530000    0.412353    0.177059     0.007504
PD3558   PD        0.530000    0.441765    0.206471     0.005394
PD3559   PD        0.559412    0.412353    0.206471     0.005394
PD3560   PD        0.559412    0.441765    0.177059     0.005394
AU3561   AU        0.588824    0.412353    0.177059     0.007504
AU3562   AU        0.588824    0.441765    0.206471     0.007504
AU3563   AU        0.618235    0.412353    0.206471     0.007504
AU3564   AU        0.618235    0.441765    0.177059     0.007504
PD3565   PD        0.647647    0.412353    0.177059     0.005394
PD3566   PD        0.647647    0.441765    0.206471     0.005394
AU3567   AU        0.677059    0.412353    0.206471     0.007504
AU3568   AU        0.677059    0.441765    0.177059     0.007504
AU3570   AU        0.706471    0.441765    0.206471     0.007504
AU3602   AU        0.235882    0.500588    0.206471     0.007504
PD3603   PD        0.265294    0.471176    0.206471     0.005394
AU3604   AU        0.265294    0.500588    0.177059     0.007504
AU3605   AU        0.294706    0.471176    0.177059     0.007504
PD3606   PD        0.294706    0.500588    0.206471     0.005394
PD3607   PD        0.324118    0.471176    0.206471     0.005394
PD3608   PD        0.324118    0.500588    0.177059     0.005394
PD3609   PD        0.353529    0.471176    0.177059     0.005394
PD3610   PD        0.353529    0.500588    0.206471     0.005394
AU3611   AU        0.382941    0.471176    0.206471     0.007504
AU3612   AU        0.382941    0.500588    0.177059     0.007504
AU3613   AU        0.412353    0.471176    0.177059     0.007504
PD3614   PD        0.412353    0.500588    0.206471     0.005394
AU3615   AU        0.441765    0.471176    0.206471     0.007504
AU3616   AU        0.441765    0.500588    0.177059     0.007504
AU3617   AU        0.471176    0.471176    0.177059     0.007504
PD3618   PD        0.471176    0.500588    0.206471     0.005394
PD3619   PD        0.500588    0.471176    0.206471     0.005394
AU3620   AU        0.500588    0.500588    0.177059     0.007504
AU3621   AU        0.530000    0.471176    0.177059     0.007504
PD3622   PD        0.530000    0.500588    0.206471     0.005394
PD3623   PD        0.559412    0.471176    0.206471     0.005394
PD3624   PD        0.559412    0.500588    0.177059     0.005394
AU3625   AU        0.588824    0.471176    0.177059     0.007504
PD3626   PD        0.588824    0.500588    0.206471     0.005394
AU3627   AU        0.618235    0.471176    0.206471     0.007504
PD3628   PD        0.618235    0.500588    0.177059     0.005394
PD3629   PD        0.647647    0.471176    0.177059     0.005394
PD3630   PD        0.647647    0.500588    0.206471     0.005394
PD3631   PD        0.677059    0.471176    0.206471     0.005394
AU3632   AU        0.677059    0.500588    0.177059     0.007504
PD3634   PD        0.706471    0.500588    0.206471     0.005394
PD3667   PD        0.265294    0.530000    0.206471     0.005394
AU3669   AU        0.294706    0.530000    0.177059     0.007504
PD3670   PD        0.294706    0.559412    0.206471     0.005394
AU3671   AU        0.324118    0.530000    0.206471     0.007504
PD3672   PD        0.324118    0.559412    0.177059     0.005394
AU3673   AU        0.353529    0.530000    0.177059     0.007504
PD3674   PD        0.353529    0.559412    0.206471     0.005394
PD3675   PD        0.382941    0.530000    0.206471     0.005394
PD3676   PD        0.382941    0.559412    0.177059     0.005394
AU3677   AU        0.412353    0.530000    0.177059     0.007504
PD3678   PD        0.412353    0.559412    0.206471     0.005394
AU3679   AU        0.441765    0.530000    0.206471     0.007504
PD3680   PD        0.441765    0.559412    0.177059     0.005394
PD3681   PD        0.471176    0.530000    0.177059     0.005394
PD3682   PD        0.471176    0.559412    0.206471     0.005394
AU3683   AU        0.500588    0.530000    0.206471     0.007504
PD3684   PD        0.500588    0.559412    0.177059     0.005394
PD3685   PD        0.530000    0.530000    0.177059     0.005394
AU3686   AU        0.530000    0.559412    0.206471     0.007504
PD3687   PD        0.559412    0.530000    0.206471     0.005394
PD3688   PD        0.559412    0.559412    0.177059     0.005394
AU3689   AU        0.588824    0.530000    0.177059     0.007504
PD3690   PD        0.588824    0.559412    0.206471     0.005394
AU3691   AU        0.618235    0.530000    0.206471     0.007504
PD3692   PD        0.618235    0.559412    0.177059     0.005394
PD3693   PD        0.647647    0.530000    0.177059     0.005394
PD3694   PD        0.647647    0.559412    0.206471     0.005394
AU3695   AU        0.677059    0.530000    0.206471     0.007504
AU3731   AU        0.265294    0.588824    0.206471     0.007504
PD3734   PD        0.294706    0.618235    0.206471     0.005394
AU3735   AU        0.324118    0.588824    0.206471     0.007504
AU3736   AU        0.324118    0.618235    0.177059     0.007504
AU3737   AU        0.353529    0.588824    0.177059     0.007504
PD3738   PD        0.353529    0.618235    0.206471     0.005394
AU3739   AU        0.382941    0.588824    0.206471     0.007504
PD3740   PD        0.382941    0.618235    0.177059     0.005394
PD3741   PD        0.412353    0.588824    0.177059     0.005394
PD3742   PD        0.412353    0.618235    0.206471     0.005394
AU3743   AU        0.441765    0.588824    0.206471     0.007504
PD3744   PD        0.441765    0.618235    0.177059     0.005394
AU3745   AU        0.471176    0.588824    0.177059     0.007504
AU3746   AU        0.471176    0.618235    0.206471     0.007504
AU3747   AU        0.500588    0.588824    0.206471     0.007504
AU3748   AU        0.500588    0.618235    0.177059     0.007504
PD3749   PD        0.530000    0.588824    0.177059     0.005394
PD3750   PD        0.530000    0.618235    0.206471     0.005394
AU3751   AU        0.559412    0.588824    0.206471     0.007504
PD3752   PD        0.559412    0.618235    0.177059     0.005394
AU3753   AU        0.588824    0.588824    0.177059     0.007504
PD3754   PD        0.588824    0.618235    0.206471     0.005394
PD3755   PD        0.618235    0.588824    0.206471     0.005394
PD3756   PD        0.618235    0.618235    0.177059     0.005394
AU3758   AU        0.647647    0.618235    0.206471     0.007504
PD3759   PD        0.677059    0.588824    0.206471     0.005394
PD3799   PD        0.324118    0.647647    0.206471     0.005394
AU3802   AU        0.353529    0.677059    0.206471     0.007504
AU3803   AU        0.382941    0.647647    0.206471     0.007504
PD3805   PD        0.412353    0.647647    0.177059     0.005394
PD3806   PD        0.412353    0.677059    0.206471     0.005394
AU3807   AU        0.441765    0.647647    0.206471     0.007504
PD3808   PD        0.441765    0.677059    0.177059     0.005394
PD3809   PD        0.471176    0.647647    0.177059     0.005394
PD3810   PD        0.471176    0.677059    0.206471     0.005394
PD3811   PD        0.500588    0.647647    0.206471     0.005394
AU3812   AU        0.500588    0.677059    0.177059     0.007504
AU3813   AU        0.530000    0.647647    0.177059     0.007504
PD3814   PD        0.530000    0.677059    0.206471     0.005394
PD3815   PD        0.559412    0.647647    0.206471     0.005394
AU3818   AU        0.588824    0.677059    0.206471     0.007504
PD3819   PD        0.618235    0.647647    0.206471     0.005394
AU3871   AU        0.441765    0.706471    0.206471     0.007504
PD3875   PD        0.500588    0.706471    0.206471     0.005394
PD4314   PD        0.353529    0.206471    0.265294     0.005394
PD4318   PD        0.412353    0.206471    0.265294     0.005394
PD4319   PD        0.441765    0.177059    0.265294     0.005394
PD4320   PD        0.441765    0.206471    0.235882     0.005394
PD4322   PD        0.471176    0.206471    0.265294     0.005394
PD4323   PD        0.500588    0.177059    0.265294     0.005394
AU4324   AU        0.500588    0.206471    0.235882     0.007504
PD4326   PD        0.530000    0.206471    0.265294     0.005394
PD4330   PD        0.588824    0.206471    0.265294     0.005394
AU4374   AU        0.294706    0.265294    0.265294     0.007504
AU4375   AU        0.324118    0.235882    0.265294     0.007504
AU4376   AU        0.324118    0.265294    0.235882     0.007504
PD4377   PD        0.353529    0.235882    0.235882     0.005394
AU4378   AU        0.353529    0.265294    0.265294     0.007504
PD4379   PD        0.382941    0.235882    0.265294     0.005394
AU4380   AU        0.382941    0.265294    0.235882     0.007504
AU4381   AU        0.412353    0.235882    0.235882     0.007504
PD4382   PD        0.412353    0.265294    0.265294     0.005394
AU4383   AU        0.441765    0.235882    0.265294     0.007504
PD4384   PD        0.441765    0.265294    0.235882     0.005394
AU4385   AU        0.471176    0.235882    0.235882     0.007504
AU4386   AU        0.471176    0.265294    0.265294     0.007504
PD4387   PD        0.500588    0.235882    0.265294     0.005394
AU4388   AU        0.500588    0.265294    0.235882     0.007504
PD4389   PD        0.530000    0.235882    0.235882     0.005394
AU4390   AU        0.530000    0.265294    0.265294     0.007504
AU4391   AU        0.559412    0.235882    0.265294     0.007504
AU4392   AU        0.559412    0.265294    0.235882     0.007504
AU4393   AU        0.588824    0.235882    0.235882     0.007504
AU4394   AU        0.588824    0.265294    0.265294     0.007504
AU4395   AU        0.618235    0.235882    0.265294     0.007504
PD4396   PD        0.618235    0.265294    0.235882     0.005394
AU4398   AU        0.647647    0.265294    0.265294     0.007504
PD4434   PD        0.235882    0.324118    0.265294     0.005394
PD4435   PD        0.265294    0.294706    0.265294     0.005394
AU4436   AU        0.265294    0.324118    0.235882     0.007504
PD4437   PD        0.294706    0.294706    0.235882     0.005394
AU4438   AU        0.294706    0.324118    0.265294     0.007504
AU4439   AU        0.324118    0.294706    0.265294     0.007504
PD4440   PD        0.324118    0.324118    0.235882     0.005394
PD4441   PD        0.353529    0.294706    0.235882     0.005394
PD4442   PD        0.353529    0.324118    0.265294     0.005394
AU4443   AU        0.382941    0.294706    0.265294     0.007504
AU4444   AU        0.382941    0.324118    0.235882     0.007504
PD4445   PD        0.412353    0.294706    0.235882     0.005394
PD4446   PD        0.412353    0.324118    0.265294     0.005394
PD4447   PD        0.441765    0.294706    0.265294     0.005394
AU4448   AU        0.441765    0.324118    0.235882     0.007504
PD4449   PD        0.471176    0.294706    0.235882     0.005394
PD4450   PD        0.471176    0.324118    0.265294     0.005394
AU4451   AU        0.500588    0.294706    0.265294     0.007504
PD4452   PD        0.500588    0.324118    0.235882     0.005394
AU4453   AU        0.530000    0.294706    0.235882     0.007504
PD4454   PD        0.530000    0.324118    0.265294     0.005394
AU4455   AU        0.559412    0.294706    0.265294     0.007504
PD4456   PD        0.559412    0.324118    0.235882     0.005394
PD4457   PD        0.588824    0.294706    0.235882     0.005394
AU4458   AU        0.588824    0.324118    0.265294     0.007504
AU4459   AU        0.618235    0.294706    0.265294     0.007504
PD4460   PD        0.618235    0.324118    0.235882     0.005394
PD4461   PD        0.647647    0.294706    0.235882     0.005394
PD4462   PD        0.647647    0.324118    0.265294     0.005394
PD4463   PD        0.677059    0.294706    0.265294     0.005394
AU4464   AU        0.677059    0.324118    0.235882     0.007504
PD4466   PD        0.706471    0.324118    0.265294     0.005394
AU4495   AU        0.206471    0.353529    0.265294     0.007504
AU4497   AU        0.235882    0.353529    0.235882     0.007504
PD4498   PD        0.235882    0.382941    0.265294     0.005394
AU4499   AU        0.265294    0.353529    0.265294     0.007504
PD4500   PD        0.265294    0.382941    0.235882     0.005394
AU4501   AU        0.294706    0.353529    0.235882     0.007504
AU4502   AU        0.294706    0.382941    0.265294     0.007504
AU4503   AU        0.324118    0.353529    0.265294     0.007504
PD4504   PD        0.324118    0.382941    0.235882     0.005394
AU4505   AU        0.353529    0.353529    0.235882     0.007504
AU4506   AU        0.353529    0.382941    0.265294     0.007504
PD4507   PD        0.382941    0.353529    0.265294     0.005394
AU4508   AU        0.382941    0.382941    0.235882     0.007504
AU4509   AU        0.412353    0.353529    0.235882     0.007504
PD4510   PD        0.412353    0.382941    0.265294     0.005394
AU4511   AU        0.441765    0.353529    0.265294     0.007504
AU4512   AU        0.441765    0.382941    0.235882     0.007504
AU4513   AU        0.471176    0.353529    0.235882     0.007504
AU4514   AU        0.471176    0.382941    0.265294     0.007504
AU4515   AU        0.500588    0.353529    0.265294     0.007504
AU4516   AU        0.500588    0.382941    0.235882     0.007504
PD4517   PD        0.530000    0.353529    0.235882     0.005394
PD4518   PD        0.530000    0.382941    0.265294     0.005394
PD4519   PD        0.559412    0.353529    0.265294     0.005394
AU4520   AU        0.559412    0.382941    0.235882     0.007504
PD4521   PD        0.588824    0.353529    0.235882     0.005394
AU4522   AU        0.588824    0.382941    0.265294     0.007504
AU4523   AU        0.618235    0.353529    0.265294     0.007504
PD4524   PD        0.618235    0.382941    0.235882     0.005394
PD4525   PD        0.647647    0.353529    0.235882     0.005394
PD4526   PD        0.647647    0.382941    0.265294     0.005394
PD4527   PD        0.677059    0.353529    0.265294     0.005394
PD4528   PD        0.677059    0.382941    0.235882     0.005394
AU4529   AU        0.706471    0.353529    0.235882     0.007504
AU4530   AU        0.706471    0.382941    0.265294     0.007504
PD4531   PD        0.735882    0.353529    0.265294     0.005394
PD4558   PD        0.177059    0.441765    0.265294     0.005394
PD4559   PD        0.206471    0.412353    0.265294     0.005394
PD4560   PD        0.206471    0.441765    0.235882     0.005394
PD4561   PD        0.235882    0.412353    0.235882     0.005394
PD4562   PD        0.235882    0.441765    0.265294     0.005394
PD4563   PD        0.265294    0.412353    0.265294     0.005394
AU4564   AU        0.265294    0.441765    0.235882     0.007504
PD4565   PD        0.294706    0.412353    0.235882     0.005394
AU4566   AU        0.294706    0.441765    0.265294     0.007504
PD4567   PD        0.324118    0.412353    0.265294     0.005394
AU4568   AU        0.324118    0.441765    0.235882     0.007504
PD4569   PD        0.353529    0.412353    0.235882     0.005394
AU4570   AU        0.353529    0.441765    0.265294     0.007504
PD4571   PD        0.382941    0.412353    0.265294     0.005394
PD4572   PD        0.382941    0.441765    0.235882     0.005394
AU4573   AU        0.412353    0.412353    0.235882     0.007504
PD4574   PD        0.412353    0.441765    0.265294     0.005394
AU4575   AU        0.441765    0.412353    0.265294     0.007504
PD4576   PD        0.441765    0.441765    0.235882     0.005394
AU4577   AU        0.471176    0.412353    0.235882     0.007504
AU4578   AU        0.471176    0.441765    0.265294     0.007504
AU4579   AU        0.500588    0.412353    0.265294     0.007504
PD4580   PD        0.500588    0.441765    0.235882     0.005394
PD4581   PD        0.530000    0.412353    0.235882     0.005394
PD4582   PD        0.530000    0.441765    0.265294     0.005394
AU4583   AU        0.559412    0.412353    0.265294     0.007504
PD4584   PD        0.559412    0.441765    0.235882     0.005394
AU4585   AU        0.588824    0.412353    0.235882     0.007504
PD4586   PD        0.588824    0.441765    0.265294     0.005394
AU4587   AU        0.618235    0.412353    0.265294     0.007504
AU4588   AU        0.618235    0.441765    0.235882     0.007504
AU4589   AU        0.647647    0.412353    0.235882     0.007504
PD4590   PD        0.647647    0.441765    0.265294     0.005394
AU4591   AU        0.677059    0.412353    0.265294     0.007504
PD4592   PD        0.677059    0.441765    0.235882     0.005394
AU4593   AU        0.706471    0.412353    0.235882     0.007504
AU4594   AU        0.706471    0.441765    0.265294     0.007504
AU4595   AU        0.735882    0.412353    0.265294     0.007504
PD4596   PD        0.735882    0.441765    0.235882     0.005394
AU4598   AU        0.765294    0.441765    0.265294     0.007504
PD4622   PD        0.177059    0.500588    0.265294     0.005394
PD4623   PD        0.206471    0.471176    0.265294     0.005394
AU4624   AU        0.206471    0.500588    0.235882     0.007504
AU4625   AU        0.235882    0.471176    0.235882     0.007504
PD4626   PD        0.235882    0.500588    0.265294     0.005394
AU4627   AU        0.265294    0.471176    0.265294     0.007504
PD4628   PD        0.265294    0.500588    0.235882     0.005394
PD4629   PD        0.294706    0.471176    0.235882     0.005394
PD4630   PD        0.294706    0.500588    0.265294     0.005394
PD4631   PD        0.324118    0.471176    0.265294     0.005394
PD4632   PD        0.324118    0.500588    0.235882     0.005394
AU4633   AU        0.353529    0.471176    0.235882     0.007504
PD4634   PD        0.353529    0.500588    0.265294     0.005394
PD4635   PD        0.382941    0.471176    0.265294     0.005394
PD4636   PD        0.382941    0.500588    0.235882     0.005394
AU4637   AU        0.412353    0.471176    0.235882     0.007504
AU4638   AU        0.412353    0.500588    0.265294     0.007504
AU4639   AU        0.441765    0.471176    0.265294     0.007504
AU4640   AU        0.441765    0.500588    0.235882     0.007504
AU4641   AU        0.471176    0.471176    0.235882     0.007504
AU4642   AU        0.471176    0.500588    0.265294     0.007504
AU4643   AU        0.500588    0.471176    0.265294     0.007504
PD4644   PD        0.500588    0.500588    0.235882     0.005394
AU4645   AU        0.530000    0.471176    0.235882     0.007504
PD4646   PD        0.530000    0.500588    0.265294     0.005394
AU4647   AU        0.559412    0.471176    0.265294     0.007504
AU4648   AU        0.559412    0.500588    0.235882     0.007504
PD4649   PD        0.588824    0.471176    0.235882     0.005394
AU4650   AU        0.588824    0.500588    0.265294     0.007504
PD4651   PD        0.618235    0.471176    0.265294     0.005394
AU4652   AU        0.618235    0.500588    0.235882     0.007504
AU4653   AU        0.647647    0.471176    0.235882     0.007504
PD4654   PD        0.647647    0.500588    0.265294     0.005394
AU4655   AU        0.677059    0.471176    0.265294     0.007504
AU4656   AU        0.677059    0.500588    0.235882     0.007504
AU4657   AU        0.706471    0.471176    0.235882     0.007504
AU4658   AU        0.706471    0.500588    0.265294     0.007504
PD4659   PD        0.735882    0.471176    0.265294     0.005394
AU4660   AU        0.735882    0.500588    0.235882     0.007504
AU4662   AU        0.765294    0.500588    0.265294     0.007504
AU4687   AU        0.206471    0.530000    0.265294     0.007504
AU4689   AU        0.235882    0.530000    0.235882     0.007504
AU4690   AU        0.235882    0.559412    0.265294     0.007504
AU4691   AU        0.265294    0.530000    0.265294     0.007504
AU4692   AU        0.265294    0.559412    0.235882     0.007504
AU4693   AU        0.294706    0.530000    0.235882     0.007504
AU4694   AU        0.294706    0.559412    0.265294     0.007504
PD4695   PD        0.324118    0.530000    0.265294     0.005394
PD4696   PD        0.324118    0.559412    0.235882     0.005394
AU4697   AU        0.353529    0.530000    0.235882     0.007504
AU4698   AU        0.353529    0.559412    0.265294     0.007504
AU4699   AU        0.382941    0.530000    0.265294     0.007504
PD4700   PD        0.382941    0.559412    0.235882     0.005394
AU4701   AU        0.412353    0.530000    0.235882     0.007504
AU4702   AU        0.412353    0.559412    0.265294     0.007504
AU4703   AU        0.441765    0.530000    0.265294     0.007504
PD4704   PD        0.441765    0.559412    0.235882     0.005394
PD4705   PD        0.471176    0.530000    0.235882     0.005394
AU4706   AU        0.471176    0.559412    0.265294     0.007504
AU4707   AU        0.500588    0.530000    0.265294     0.007504
PD4708   PD        0.500588    0.559412    0.235882     0.005394
PD4709   PD        0.530000    0.530000    0.235882     0.005394
AU4710   AU        0.530000    0.559412    0.265294     0.007504
PD4711   PD        0.559412    0.530000    0.265294     0.005394
AU4712   AU        0.559412    0.559412    0.235882     0.007504
PD4713   PD        0.588824    0.530000    0.235882     0.005394
PD4714   PD        0.588824    0.559412    0.265294     0.005394
PD4715   PD        0.618235    0.530000    0.265294     0.005394
AU4716   AU        0.618235    0.559412    0.235882     0.007504
AU4717   AU        0.647647    0.530000    0.235882     0.007504
AU4718   AU        0.647647    0.559412    0.265294     0.007504
PD4719   PD        0.677059    0.530000    0.265294     0.005394
AU4720   AU        0.677059    0.559412    0.235882     0.007504
PD4721   PD        0.706471    0.530000    0.235882     0.005394
PD4722   PD        0.706471    0.559412    0.265294     0.005394
PD4723   PD        0.735882    0.530000    0.265294     0.005394
AU4751   AU        0.206471    0.588824    0.265294     0.007504
PD4753   PD        0.235882    0.588824    0.235882     0.005394
AU4754   AU        0.235882    0.618235    0.265294     0.007504
AU4755   AU        0.265294    0.588824    0.265294     0.007504
AU4756   AU        0.265294    0.618235    0.235882     0.007504
PD4757   PD        0.294706    0.588824    0.235882     0.005394
PD4758   PD        0.294706    0.618235    0.265294     0.005394
PD4759   PD        0.324118    0.588824    0.265294     0.005394
PD4760   PD        0.324118    0.618235    0.235882     0.005394
PD4761   PD        0.353529    0.588824    0.235882     0.005394
PD4762   PD        0.353529    0.618235    0.265294     0.005394
PD4763   PD        0.382941    0.588824    0.265294     0.005394
AU4764   AU        0.382941    0.618235    0.235882     0.007504
PD4765   PD        0.412353    0.588824    0.235882     0.005394
AU4766   AU        0.412353    0.618235    0.265294     0.007504
AU4767   AU        0.441765    0.588824    0.265294     0.007504
PD4768   PD        0.441765    0.618235    0.235882     0.005394
PD4769   PD        0.471176    0.588824    0.235882     0.005394
AU4770   AU        0.471176    0.618235    0.265294     0.007504
AU4771   AU        0.500588    0.588824    0.265294     0.007504
PD4772   PD        0.500588    0.618235    0.235882     0.005394
PD4773   PD        0.530000    0.588824    0.235882     0.005394
AU4774   AU        0.530000    0.618235    0.265294     0.007504
PD4775   PD        0.559412    0.588824    0.265294     0.005394
AU4776   AU        0.559412    0.618235    0.235882     0.007504
AU4777   AU        0.588824    0.588824    0.235882     0.007504
AU4778   AU        0.588824    0.618235    0.265294     0.007504
AU4779   AU        0.618235    0.588824    0.265294     0.007504
PD4780   PD        0.618235    0.618235    0.235882     0.005394
PD4781   PD        0.647647    0.588824    0.235882     0.005394
AU4782   AU        0.647647    0.618235    0.265294     0.007504
PD4783   PD        0.677059    0.588824    0.265294     0.005394
PD4784   PD        0.677059    0.618235    0.235882     0.005394
AU4785   AU        0.706471    0.588824    0.235882     0.007504
PD4786   PD        0.706471    0.618235    0.265294     0.005394
AU4787   AU        0.735882    0.588824    0.265294     0.007504
AU4819   AU        0.265294    0.647647    0.265294     0.007504
AU4821   AU        0.294706    0.647647    0.235882     0.007504
AU4822   AU        0.294706    0.677059    0.265294     0.007504
AU4823   AU        0.324118    0.647647    0.265294     0.007504
PD4824   PD        0.324118    0.677059    0.235882     0.005394
PD4825   PD        0.353529    0.647647    0.235882     0.005394
AU4826   AU        0.353529    0.677059    0.265294     0.007504
PD4827   PD        0.382941    0.647647    0.265294     0.005394
AU4828   AU        0.382941    0.677059    0.235882     0.007504
PD4829   PD        0.412353    0.647647    0.235882     0.005394
PD4830   PD        0.412353    0.677059    0.265294     0.005394
AU4831   AU        0.441765    0.647647    0.265294     0.007504
AU4832   AU        0.441765    0.677059    0.235882     0.007504
PD4833   PD        0.471176    0.647647    0.235882     0.005394
AU4834   AU        0.471176    0.677059    0.265294     0.007504
AU4835   AU        0.500588    0.647647    0.265294     0.007504
PD4836   PD        0.500588    0.677059    0.235882     0.005394
AU4837   AU        0.530000    0.647647    0.235882     0.007504
AU4838   AU        0.530000    0.677059    0.265294     0.007504
PD4839   PD        0.559412    0.647647    0.265294     0.005394
PD4840   PD        0.559412    0.677059    0.235882     0.005394
PD4841   PD        0.588824    0.647647    0.235882     0.005394
AU4842   AU        0.588824    0.677059    0.265294     0.007504
PD4843   PD        0.618235    0.647647    0.265294     0.005394
PD4844   PD        0.618235    0.677059    0.235882     0.005394
AU4845   AU        0.647647    0.647647    0.235882     0.007504
PD4846   PD        0.647647    0.677059    0.265294     0.005394
PD4847   PD        0.677059    0.647647    0.265294     0.005394
PD4887   PD        0.324118    0.706471    0.265294     0.005394
PD4889   PD        0.353529    0.706471    0.235882     0.005394
AU4890   AU        0.353529    0.735882    0.265294     0.007504
AU4891   AU        0.382941    0.706471    0.265294     0.007504
PD4893   PD        0.412353    0.706471    0.235882     0.005394
PD4894   PD        0.412353    0.735882    0.265294     0.005394
PD4895   PD        0.441765    0.706471    0.265294     0.005394
AU4896   AU        0.441765    0.735882    0.235882     0.007504
PD4897   PD        0.471176    0.706471    0.235882     0.005394
AU4898   AU        0.471176    0.735882    0.265294     0.007504
PD4899   PD        0.500588    0.706471    0.265294     0.005394
PD4900   PD        0.500588    0.735882    0.235882     0.005394
PD4901   PD        0.530000    0.706471    0.235882     0.005394
PD4902   PD        0.530000    0.735882    0.265294     0.005394
AU4903   AU        0.559412    0.706471    0.265294     0.007504
AU4905   AU        0.588824    0.706471    0.235882     0.007504
PD4906   PD        0.588824    0.735882    0.265294     0.005394
PD4907   PD        0.618235    0.706471    0.265294     0.005394
AU4959   AU        0.441765    0.765294    0.265294     0.007504
AU4963   AU        0.500588    0.765294    0.265294     0.007504
PD5278   PD        0.412353    0.147647    0.324118     0.005394
AU5282   AU        0.471176    0.147647    0.324118     0.007504
PD5286   PD        0.530000    0.147647    0.324118     0.005394
PD5334   PD        0.294706    0.206471    0.324118     0.005394
PD5335   PD        0.324118    0.177059    0.324118     0.005394
AU5336   AU        0.324118    0.206471    0.294706     0.007504
PD5338   PD        0.353529    0.206471    0.324118     0.005394
AU5339   AU        0.382941    0.177059    0.324118     0.007504
PD5340   PD        0.382941    0.206471    0.294706     0.005394
PD5341   PD        0.412353    0.177059    0.294706     0.005394
AU5342   AU        0.412353    0.206471    0.324118     0.007504
PD5343   PD        0.441765    0.177059    0.324118     0.005394
PD5344   PD        0.441765    0.206471    0.294706     0.005394
AU5345   AU        0.471176    0.177059    0.294706     0.007504
PD5346   PD        0.471176    0.206471    0.324118     0.005394
PD5347   PD        0.500588    0.177059    0.324118     0.005394
AU5348   AU        0.500588    0.206471    0.294706     0.007504
PD5349   PD        0.530000    0.177059    0.294706     0.005394
AU5350   AU        0.530000    0.206471    0.324118     0.007504
AU5351   AU        0.559412    0.177059    0.324118     0.007504
AU5352   AU        0.559412    0.206471    0.294706     0.007504
AU5354   AU        0.588824    0.206471    0.324118     0.007504
AU5355   AU        0.618235    0.177059    0.324118     0.007504
PD5356   PD        0.618235    0.206471    0.294706     0.005394
AU5358   AU        0.647647    0.206471    0.324118     0.007504
PD5394   PD        0.235882    0.265294    0.324118     0.005394
AU5395   AU        0.265294    0.235882    0.324118     0.007504
PD5396   PD        0.265294    0.265294    0.294706     0.005394
PD5397   PD        0.294706    0.235882    0.294706     0.005394
PD5398   PD        0.294706    0.265294    0.324118     0.005394
PD5399   PD        0.324118    0.235882    0.324118     0.005394
AU5400   AU        0.324118    0.265294    0.294706     0.007504
PD5401   PD        0.353529    0.235882    0.294706     0.005394
AU5402   AU        0.353529    0.265294    0.324118     0.007504
AU5403   AU        0.382941    0.235882    0.324118     0.007504
AU5404   AU        0.382941    0.265294    0.294706     0.007504
AU5405   AU        0.412353    0.235882    0.294706     0.007504
PD5406   PD        0.412353    0.265294    0.324118     0.005394
PD5407   PD        0.441765    0.235882    0.324118     0.005394
PD5408   PD        0.441765    0.265294    0.294706     0.005394
PD5409   PD        0.471176    0.235882    0.294706     0.005394
AU5410   AU        0.471176    0.265294    0.324118     0.007504
AU5411   AU        0.500588    0.235882    0.324118     0.007504
AU5412   AU        0.500588    0.265294    0.294706     0.007504
AU5413   AU        0.530000    0.235882    0.294706     0.007504
AU5414   AU        0.530000    0.265294    0.324118     0.007504
PD5415   PD        0.559412    0.235882    0.324118     0.005394
AU5416   AU        0.559412    0.265294    0.294706     0.007504
PD5417   PD        0.588824    0.235882    0.294706     0.005394
PD5418   PD        0.588824    0.265294    0.324118     0.005394
AU5419   AU        0.618235    0.235882    0.324118     0.007504
PD5420   PD        0.618235    0.265294    0.294706     0.005394
PD5421   PD        0.647647    0.235882    0.294706     0.005394
AU5422   AU        0.647647    0.265294    0.324118     0.007504
AU5423   AU        0.677059    0.235882    0.324118     0.007504
AU5424   AU        0.677059    0.265294    0.294706     0.007504
PD5426   PD        0.706471    0.265294    0.324118     0.005394
AU5454   AU        0.177059    0.324118    0.324118     0.007504
PD5455   PD        0.206471    0.294706    0.324118     0.005394
AU5456   AU        0.206471    0.324118    0.294706     0.007504
AU5457   AU        0.235882    0.294706    0.294706     0.007504
AU5458   AU        0.235882    0.324118    0.324118     0.007504
PD5459   PD        0.265294    0.294706    0.324118     0.005394
PD5460   PD        0.265294    0.324118    0.294706     0.005394
PD5461   PD        0.294706    0.294706    0.294706     0.005394
PD5462   PD        0.294706    0.324118    0.324118     0.005394
PD5463   PD        0.324118    0.294706    0.324118     0.005394
AU5464   AU        0.324118    0.324118    0.294706     0.007504
AU5465   AU        0.353529    0.294706    0.294706     0.007504
PD5466   PD        0.353529    0.324118    0.324118     0.005394
AU5467   AU        0.382941    0.294706    0.324118     0.007504
AU5468   AU        0.382941    0.324118    0.294706     0.007504
PD5469   PD        0.412353    0.294706    0.294706     0.005394
PD5470   PD        0.412353    0.324118    0.324118     0.005394
PD5471   PD        0.441765    0.294706    0.324118     0.005394
AU5472   AU        0.441765    0.324118    0.294706     0.007504
AU5473   AU        0.471176    0.294706    0.294706     0.007504
AU5474   AU        0.471176    0.324118    0.324118     0.007504
PD5475   PD        0.500588    0.294706    0.324118     0.005394
PD5476   PD        0.500588    0.324118    0.294706     0.005394
AU5477   AU        0.530000    0.294706    0.294706     0.007504
PD5478   PD        0.530000    0.324118    0.324118     0.005394
PD5479   PD        0.559412    0.294706    0.324118     0.005394
PD5480   PD        0.559412    0.324118    0.294706     0.005394
AU5481   AU        0.588824    0.294706    0.294706     0.007504
PD5482   PD        0.588824    0.324118    0.324118     0.005394
PD5483   PD        0.618235    0.294706    0.324118     0.005394
PD5484   PD        0.618235    0.324118    0.294706     0.005394
PD5485   PD        0.647647    0.294706    0.294706     0.005394
AU5486   AU        0.647647    0.324118    0.324118     0.007504
PD5487   PD        0.677059    0.294706    0.324118     0.005394
PD5488   PD        0.677059    0.324118    0.294706     0.005394
AU5489   AU        0.706471    0.294706    0.294706     0.007504
PD5490   PD        0.706471    0.324118    0.324118     0.005394
PD5491   PD        0.735882    0.294706    0.324118     0.005394
PD5492   PD        0.735882    0.324118    0.294706     0.005394
PD5494   PD        0.765294    0.324118    0.324118     0.005394
AU5518   AU        0.177059    0.382941    0.324118     0.007504
PD5519   PD        0.206471    0.353529    0.324118     0.005394
AU5520   AU        0.206471    0.382941    0.294706     0.007504
PD5521   PD        0.235882    0.353529    0.294706     0.005394
AU5522   AU        0.235882    0.382941    0.324118     0.007504
AU5523   AU        0.265294    0.353529    0.324118     0.007504
AU5524   AU        0.265294    0.382941    0.294706     0.007504
PD5525   PD        0.294706    0.353529    0.294706     0.005394
PD5526   PD        0.294706    0.382941    0.324118     0.005394
AU5527   AU        0.324118    0.353529    0.324118     0.007504
AU5528   AU        0.324118    0.382941    0.294706     0.007504
AU5529   AU        0.353529    0.353529    0.294706     0.007504
PD5530   PD        0.353529    0.382941    0.324118     0.005394
AU5531   AU        0.382941    0.353529    0.324118     0.007504
PD5532   PD        0.382941    0.382941    0.294706     0.005394
AU5533   AU        0.412353    0.353529    0.294706     0.007504
AU5534   AU        0.412353    0.382941    0.324118     0.007504
AU5535   AU        0.441765    0.353529    0.324118     0.007504
AU5536   AU        0.441765    0.382941    0.294706     0.007504
AU5537   AU        0.471176    0.353529    0.294706     0.007504
AU5538   AU        0.471176    0.382941    0.324118     0.007504
AU5539   AU        0.500588    0.353529    0.324118     0.007504
PD5540   PD        0.500588    0.382941    0.294706     0.005394
AU5541   AU        0.530000    0.353529    0.294706     0.007504
AU5542   AU        0.530000    0.382941    0.324118     0.007504
AU5543   AU        0.559412    0.353529    0.324118     0.007504
AU5544   AU        0.559412    0.382941    0.294706     0.007504
PD5545   PD        0.588824    0.353529    0.294706     0.005394
AU5546   AU        0.588824    0.382941    0.324118     0.007504
AU5547   AU        0.618235    0.353529    0.324118     0.007504
AU5548   AU        0.618235    0.382941    0.294706     0.007504
AU5549   AU        0.647647    0.353529    0.294706     0.007504
AU5550   AU        0.647647    0.382941    0.324118     0.007504
AU5551   AU        0.677059    0.353529    0.324118     0.007504
AU5552   AU        0.677059    0.382941    0.294706     0.007504
AU5553   AU        0.706471    0.353529    0.294706     0.007504
PD5554   PD        0.706471    0.382941    0.324118     0.005394
AU5555   AU        0.735882    0.353529    0.324118     0.007504
AU5556   AU        0.735882    0.382941    0.294706     0.007504
PD5558   PD        0.765294    0.382941    0.324118     0.005394
PD5579   PD        0.147647    0.412353    0.324118     0.005394
PD5581   PD        0.177059    0.412353    0.294706     0.005394
PD5582   PD        0.177059    0.441765    0.324118     0.005394
PD5583   PD        0.206471    0.412353    0.324118     0.005394
PD5584   PD        0.206471    0.441765    0.294706     0.005394
AU5585   AU        0.235882    0.412353    0.294706     0.007504
PD5586   PD        0.235882    0.441765    0.324118     0.005394
AU5587   AU        0.265294    0.412353    0.324118     0.007504
PD5588   PD        0.265294    0.441765    0.294706     0.005394
AU5589   AU        0.294706    0.412353    0.294706     0.007504
AU5590   AU        0.294706    0.441765    0.324118     0.007504
AU5591   AU        0.324118    0.412353    0.324118     0.007504
PD5592   PD        0.324118    0.441765    0.294706     0.005394
PD5593   PD        0.353529    0.412353    0.294706     0.005394
AU5594   AU        0.353529    0.441765    0.324118     0.007504
AU5595   AU        0.382941    0.412353    0.324118     0.007504
PD5596   PD        0.382941    0.441765    0.294706     0.005394
PD5597   PD        0.412353    0.412353    0.294706     0.005394
PD5598   PD        0.412353    0.441765    0.324118     0.005394
PD5599   PD        0.441765    0.412353    0.324118     0.005394
AU5600   AU        0.441765    0.441765    0.294706     0.007504
PD5601   PD        0.471176    0.412353    0.294706     0.005394
AU5602   AU        0.471176    0.441765    0.324118     0.007504
PD5603   PD        0.500588    0.412353    0.324118     0.005394
AU5604   AU        0.500588    0.441765    0.294706     0.007504
PD5605   PD        0.530000    0.412353    0.294706     0.005394
AU5606   AU        0.530000    0.441765    0.324118     0.007504
PD5607   PD        0.559412    0.412353    0.324118     0.005394
AU5608   AU        0.559412    0.441765    0.294706     0.007504
AU5609   AU        0.588824    0.412353    0.294706     0.007504
PD5610   PD        0.588824    0.441765    0.324118     0.005394
AU5611   AU        0.618235    0.412353    0.324118     0.007504
AU5612   AU        0.618235    0.441765    0.294706     0.007504
AU5613   AU        0.647647    0.412353    0.294706     0.007504
AU5614   AU        0.647647    0.441765    0.324118     0.007504
PD5615   PD        0.677059    0.412353    0.324118     0.005394
AU5616   AU        0.677059    0.441765    0.294706     0.007504
PD5617   PD        0.706471    0.412353    0.294706     0.005394
AU5618   AU        0.706471    0.441765    0.324118     0.007504
PD5619   PD        0.735882    0.412353    0.324118     0.005394
AU5620   AU        0.735882    0.441765    0.294706     0.007504
AU5621   AU        0.765294    0.412353    0.294706     0.007504
AU5622   AU        0.765294    0.441765    0.324118     0.007504
AU5623   AU        0.794706    0.412353    0.324118     0.007504
PD5643   PD        0.147647    0.471176    0.324118     0.005394
PD5645   PD        0.177059    0.471176    0.294706     0.005394
PD5646   PD        0.177059    0.500588    0.324118     0.005394
PD5647   PD        0.206471    0.471176    0.324118     0.005394
AU5648   AU        0.206471    0.500588    0.294706     0.007504
AU5649   AU        0.235882    0.471176    0.294706     0.007504
PD5650   PD        0.235882    0.500588    0.324118     0.005394
PD5651   PD        0.265294    0.471176    0.324118     0.005394
AU5652   AU        0.265294    0.500588    0.294706     0.007504
PD5653   PD        0.294706    0.471176    0.294706     0.005394
AU5654   AU        0.294706    0.500588    0.324118     0.007504
PD5655   PD        0.324118    0.471176    0.324118     0.005394
AU5656   AU        0.324118    0.500588    0.294706     0.007504
PD5657   PD        0.353529    0.471176    0.294706     0.005394
AU5658   AU        0.353529    0.500588    0.324118     0.007504
AU5659   AU        0.382941    0.471176    0.324118     0.007504
PD5660   PD        0.382941    0.500588    0.294706     0.005394
AU5661   AU        0.412353    0.471176    0.294706     0.007504
AU5662   AU        0.412353    0.500588    0.324118     0.007504
AU5663   AU        0.441765    0.471176    0.324118     0.007504
PD5664   PD        0.441765    0.500588    0.294706     0.005394
AU5665   AU        0.471176    0.471176    0.294706     0.007504
AU5666   AU        0.471176    0.500588    0.324118     0.007504
PD5667   PD        0.500588    0.471176    0.324118     0.005394
AU5668   AU        0.500588    0.500588    0.294706     0.007504
AU5669   AU        0.530000    0.471176    0.294706     0.007504
AU5670   AU        0.530000    0.500588    0.324118     0.007504
PD5671   PD        0.559412    0.471176    0.324118     0.005394
AU5672   AU        0.559412    0.500588    0.294706     0.007504
PD5673   PD        0.588824    0.471176    0.294706     0.005394
AU5674   AU        0.588824    0.500588    0.324118     0.007504
PD5675   PD        0.618235    0.471176    0.324118     0.005394
PD5676   PD        0.618235    0.500588    0.294706     0.005394
AU5677   AU        0.647647    0.471176    0.294706     0.007504
AU5678   AU        0.647647    0.500588    0.324118     0.007504
AU5679   AU        0.677059    0.471176    0.324118     0.007504
AU5680   AU        0.677059    0.500588    0.294706     0.007504
AU5681   AU        0.706471    0.471176    0.294706     0.007504
PD5682   PD        0.706471    0.500588    0.324118     0.005394
PD5683   PD        0.735882    0.471176    0.324118     0.005394
AU5684   AU        0.735882    0.500588    0.294706     0.007504
PD5685   PD        0.765294    0.471176    0.294706     0.005394
AU5686   AU        0.765294    0.500588    0.324118     0.007504
PD5687   PD        0.794706    0.471176    0.324118     0.005394
PD5707   PD        0.147647    0.530000    0.324118     0.005394
PD5709   PD        0.177059    0.530000    0.294706     0.005394
AU5710   AU        0.177059    0.559412    0.324118     0.007504
AU5711   AU        0.206471    0.530000    0.324118     0.007504
AU5712   AU        0.206471    0.559412    0.294706     0.007504
PD5713   PD        0.235882    0.530000    0.294706     0.005394
AU5714   AU        0.235882    0.559412    0.324118     0.007504
PD5715   PD        0.265294    0.530000    0.324118     0.005394
AU5716   AU        0.265294    0.559412    0.294706     0.007504
PD5717   PD        0.294706    0.530000    0.294706     0.005394
AU5718   AU        0.294706    0.559412    0.324118     0.007504
AU5719   AU        0.324118    0.530000    0.324118     0.007504
PD5720   PD        0.324118    0.559412    0.294706     0.005394
AU5721   AU        0.353529    0.530000    0.294706     0.007504
AU5722   AU        0.353529    0.559412    0.324118     0.007504
AU5723   AU        0.382941    0.530000    0.324118     0.007504
PD5724   PD        0.382941    0.559412    0.294706     0.005394
AU5725   AU        0.412353    0.530000    0.294706     0.007504
AU5726   AU        0.412353    0.559412    0.324118     0.007504
PD5727   PD        0.441765    0.530000    0.324118     0.005394
AU5728   AU        0.441765    0.559412    0.294706     0.007504
PD5729   PD        0.471176    0.530000    0.294706     0.005394
PD5730   PD        0.471176    0.559412    0.324118     0.005394
PD5731   PD        0.500588    0.530000    0.324118     0.005394
AU5732   AU        0.500588    0.559412    0.294706     0.007504
PD5733   PD        0.530000    0.530000    0.294706     0.005394
AU5734   AU        0.530000    0.559412    0.324118     0.007504
AU5735   AU        0.559412    0.530000    0.324118     0.007504
AU5736   AU        0.559412    0.559412    0.294706     0.007504
AU5737   AU        0.588824    0.530000    0.294706     0.007504
PD5738   PD        0.588824    0.559412    0.324118     0.005394
AU5739   AU        0.618235    0.530000    0.324118     0.007504
PD5740   PD        0.618235    0.559412    0.294706     0.005394
AU5741   AU        0.647647    0.530000    0.294706     0.007504
PD5742   PD        0.647647    0.559412    0.324118     0.005394
AU5743   AU        0.677059    0.530000    0.324118     0.007504
PD5744   PD        0.677059    0.559412    0.294706     0.005394
PD5745   PD        0.706471    0.530000    0.294706     0.005394
AU5746   AU        0.706471    0.559412    0.324118     0.007504
PD5747   PD        0.735882    0.530000    0.324118     0.005394
AU5748   AU        0.735882    0.559412    0.294706     0.007504
AU5749   AU        0.765294    0.530000    0.294706     0.007504
PD5750   PD        0.765294    0.559412    0.324118     0.005394
PD5751   PD        0.794706    0.530000    0.324118     0.005394
PD5774   PD        0.177059    0.618235    0.324118     0.005394
PD5775   PD        0.206471    0.588824    0.324118     0.005394
PD5776   PD        0.206471    0.618235    0.294706     0.005394
PD5777   PD        0.235882    0.588824    0.294706     0.005394
PD5778   PD        0.235882    0.618235    0.324118     0.005394
PD5779   PD        0.265294    0.588824    0.324118     0.005394
AU5780   AU        0.265294    0.618235    0.294706     0.007504
AU5781   AU        0.294706    0.588824    0.294706     0.007504
AU5782   AU        0.294706    0.618235    0.324118     0.007504
AU5783   AU        0.324118    0.588824    0.324118     0.007504
AU5784   AU        0.324118    0.618235    0.294706     0.007504
AU5785   AU        0.353529    0.588824    0.294706     0.007504
AU5786   AU        0.353529    0.618235    0.324118     0.007504
AU5787   AU        0.382941    0.588824    0.324118     0.007504
PD5788   PD        0.382941    0.618235    0.294706     0.005394
PD5789   PD        0.412353    0.588824    0.294706     0.005394
PD5790   PD        0.412353    0.618235    0.324118     0.005394
AU5791   AU        0.441765    0.588824    0.324118     0.007504
AU5792   AU        0.441765    0.618235    0.294706     0.007504
PD5793   PD        0.471176    0.588824    0.294706     0.005394
AU5794   AU        0.471176    0.618235    0.324118     0.007504
AU5795   AU        0.500588    0.588824    0.324118     0.007504
AU5796   AU        0.500588    0.618235    0.294706     0.007504
AU5797   AU        0.530000    0.588824    0.294706     0.007504
PD5798   PD        0.530000    0.618235    0.324118     0.005394
AU5799   AU        0.559412    0.588824    0.324118     0.007504
PD5800   PD        0.559412    0.618235    0.294706     0.005394
PD5801   PD        0.588824    0.588824    0.294706     0.005394
AU5802   AU        0.588824    0.618235    0.324118     0.007504
PD5803   PD        0.618235    0.588824    0.324118     0.005394
AU5804   AU        0.618235    0.618235    0.294706     0.007504
PD5805   PD        0.647647    0.588824    0.294706     0.005394
PD5806   PD        0.647647    0.618235    0.324118     0.005394
AU5807   AU        0.677059    0.588824    0.324118     0.007504
PD5808   PD        0.677059    0.618235    0.294706     0.005394
AU5809   AU        0.706471    0.588824    0.294706     0.007504
AU5810   AU        0.706471    0.618235    0.324118     0.007504
PD5811   PD        0.735882    0.588824    0.324118     0.005394
PD5812   PD        0.735882    0.618235    0.294706     0.005394
PD5814   PD        0.765294    0.618235    0.324118     0.005394
PD5839   PD        0.206471    0.647647    0.324118     0.005394
PD5841   PD        0.235882    0.647647    0.294706     0.005394
PD5842   PD        0.235882    0.677059    0.324118     0.005394
AU5843   AU        0.265294    0.647647    0.324118     0.007504
AU5844   AU        0.265294    0.677059    0.294706     0.007504
PD5845   PD        0.294706    0.647647    0.294706     0.005394
PD5846   PD        0.294706    0.677059    0.324118     0.005394
AU5847   AU        0.324118    0.647647    0.324118     0.007504
AU5848   AU        0.324118    0.677059    0.294706     0.007504
PD5849   PD        0.353529    0.647647    0.294706     0.005394
PD5850   PD        0.353529    0.677059    0.324118     0.005394
PD5851   PD        0.382941    0.647647    0.324118     0.005394
AU5852   AU        0.382941    0.677059    0.294706     0.007504
AU5853   AU        0.412353    0.647647    0.294706     0.007504
AU5854   AU        0.412353    0.677059    0.324118     0.007504
PD5855   PD        0.441765    0.647647    0.324118     0.005394
AU5856   AU        0.441765    0.677059    0.294706     0.007504
PD5857   PD        0.471176    0.647647    0.294706     0.005394
AU5858   AU        0.471176    0.677059    0.324118     0.007504
AU5859   AU        0.500588    0.647647    0.324118     0.007504
AU5860   AU        0.500588    0.677059    0.294706     0.007504
AU5861   AU        0.530000    0.647647    0.294706     0.007504
AU5862   AU        0.530000    0.677059    0.324118     0.007504
PD5863   PD        0.559412    0.647647    0.324118     0.005394
PD5864   PD        0.559412    0.677059    0.294706     0.005394
AU5865   AU        0.588824    0.647647    0.294706     0.007504
PD5866   PD        0.588824    0.677059    0.324118     0.005394
AU5867   AU        0.618235    0.647647    0.324118     0.007504
PD5868   PD        0.618235    0.677059    0.294706     0.005394
PD5869   PD        0.647647    0.647647    0.294706     0.005394
PD5870   PD        0.647647    0.677059    0.324118     0.005394
AU5871   AU        0.677059    0.647647    0.324118     0.007504
AU5872   AU        0.677059    0.677059    0.294706     0.007504
AU5873   AU        0.706471    0.647647    0.294706     0.007504
AU5874   AU        0.706471    0.677059    0.324118     0.007504
PD5875   PD        0.735882    0.647647    0.324118     0.005394
PD5907   PD        0.265294    0.706471    0.324118     0.005394
AU5909   AU        0.294706    0.706471    0.294706     0.007504
AU5910   AU        0.294706    0.735882    0.324118     0.007504
PD5911   PD        0.324118    0.706471    0.324118     0.005394
AU5912   AU        0.324118    0.735882    0.294706     0.007504
PD5913   PD        0.353529    0.706471    0.294706     0.005394
PD5914   PD        0.353529    0.735882    0.324118     0.005394
AU5915   AU        0.382941    0.706471    0.324118     0.007504
PD5916   PD        0.382941    0.735882    0.294706     0.005394
PD5917   PD        0.412353    0.706471    0.294706     0.005394
AU5918   AU        0.412353    0.735882    0.324118     0.007504
PD5919   PD        0.441765    0.706471    0.324118     0.005394
AU5920   AU        0.441765    0.735882    0.294706     0.007504
PD5921   PD        0.471176    0.706471    0.294706     0.005394
PD5922   PD        0.471176    0.735882    0.324118     0.005394
AU5923   AU        0.500588    0.706471    0.324118     0.007504
PD5924   PD        0.500588    0.735882    0.294706     0.005394
AU5925   AU        0.530000    0.706471    0.294706     0.007504
PD5926   PD        0.530000    0.735882    0.324118     0.005394
PD5927   PD        0.559412    0.706471    0.324118     0.005394
PD5928   PD        0.559412    0.735882    0.294706     0.005394
PD5929   PD        0.588824    0.706471    0.294706     0.005394
PD5930   PD        0.588824    0.735882    0.324118     0.005394
AU5931   AU        0.618235    0.706471    0.324118     0.007504
PD5932   PD        0.618235    0.735882    0.294706     0.005394
PD5933   PD        0.647647    0.706471    0.294706     0.005394
AU5934   AU        0.647647    0.735882    0.324118     0.007504
AU5935   AU        0.677059    0.706471    0.324118     0.007504
PD5975   PD        0.324118    0.765294    0.324118     0.005394
AU5979   AU        0.382941    0.765294    0.324118     0.007504
AU5981   AU        0.412353    0.765294    0.294706     0.007504
PD5982   PD        0.412353    0.794706    0.324118     0.005394
AU5983   AU        0.441765    0.765294    0.324118     0.007504
AU5985   AU        0.471176    0.765294    0.294706     0.007504
AU5986   AU        0.471176    0.794706    0.324118     0.007504
AU5987   AU        0.500588    0.765294    0.324118     0.007504
PD5989   PD        0.530000    0.765294    0.294706     0.005394
PD5990   PD        0.530000    0.794706    0.324118     0.005394
PD5991   PD        0.559412    0.765294    0.324118     0.005394
PD5995   PD        0.618235    0.765294    0.324118     0.005394
PD6298   PD        0.353529    0.147647    0.382941     0.005394
AU6300   AU        0.382941    0.147647    0.353529     0.007504
PD6302   PD        0.412353    0.147647    0.382941     0.005394
PD6304   PD        0.441765    0.147647    0.353529     0.005394
AU6306   AU        0.471176    0.147647    0.382941     0.007504
PD6308   PD        0.500588    0.147647    0.353529     0.005394
AU6310   AU        0.530000    0.147647    0.382941     0.007504
PD6312   PD        0.559412    0.147647    0.353529     0.005394
PD6314   PD        0.588824    0.147647    0.382941     0.005394
PD6356   PD        0.265294    0.206471    0.353529     0.005394
PD6358   PD        0.294706    0.206471    0.382941     0.005394
PD6359   PD        0.324118    0.177059    0.382941     0.005394
PD6360   PD        0.324118    0.206471    0.353529     0.005394
PD6361   PD        0.353529    0.177059    0.353529     0.005394
AU6362   AU        0.353529    0.206471    0.382941     0.007504
AU6363   AU        0.382941    0.177059    0.382941     0.007504
AU6364   AU        0.382941    0.206471    0.353529     0.007504
PD6365   PD        0.412353    0.177059    0.353529     0.005394
PD6366   PD        0.412353    0.206471    0.382941     0.005394
PD6367   PD        0.441765    0.177059    0.382941     0.005394
PD6368   PD        0.441765    0.206471    0.353529     0.005394
AU6369   AU        0.471176    0.177059    0.353529     0.007504
AU6370   AU        0.471176    0.206471    0.382941     0.007504
AU6371   AU        0.500588    0.177059    0.382941     0.007504
AU6372   AU        0.500588    0.206471    0.353529     0.007504
AU6373   AU        0.530000    0.177059    0.353529     0.007504
AU6374   AU        0.530000    0.206471    0.382941     0.007504
AU6375   AU        0.559412    0.177059    0.382941     0.007504
AU6376   AU        0.559412    0.206471    0.353529     0.007504
AU6377   AU        0.588824    0.177059    0.353529     0.007504
PD6378   PD        0.588824    0.206471    0.382941     0.005394
PD6379   PD        0.618235    0.177059    0.382941     0.005394
AU6380   AU        0.618235    0.206471    0.353529     0.007504
PD6382   PD        0.647647    0.206471    0.382941     0.005394
AU6384   AU        0.677059    0.206471    0.353529     0.007504
AU6416   AU        0.206471    0.265294    0.353529     0.007504
PD6417   PD        0.235882    0.235882    0.353529     0.005394
AU6418   AU        0.235882    0.265294    0.382941     0.007504
PD6419   PD        0.265294    0.235882    0.382941     0.005394
AU6420   AU        0.265294    0.265294    0.353529     0.007504
AU6421   AU        0.294706    0.235882    0.353529     0.007504
AU6422   AU        0.294706    0.265294    0.382941     0.007504
PD6423   PD        0.324118    0.235882    0.382941     0.005394
PD6424   PD        0.324118    0.265294    0.353529     0.005394
AU6425   AU        0.353529    0.235882    0.353529     0.007504
PD6426   PD        0.353529    0.265294    0.382941     0.005394
PD6427   PD        0.382941    0.235882    0.382941     0.005394
PD6428   PD        0.382941    0.265294    0.353529     0.005394
AU6429   AU        0.412353    0.235882    0.353529     0.007504
AU6430   AU        0.412353    0.265294    0.382941     0.007504
PD6431   PD        0.441765    0.235882    0.382941     0.005394
AU6432   AU        0.441765    0.265294    0.353529     0.007504
PD6433   PD        0.471176    0.235882    0.353529     0.005394
PD6434   PD        0.471176    0.265294    0.382941     0.005394
AU6435   AU        0.500588    0.235882    0.382941     0.007504
PD6436   PD        0.500588    0.265294    0.353529     0.005394
AU6437   AU        0.530000    0.235882    0.353529     0.007504
PD6438   PD        0.530000    0.265294    0.382941     0.005394
PD6439   PD        0.559412    0.235882    0.382941     0.005394
AU6440   AU        0.559412    0.265294    0.353529     0.007504
PD6441   PD        0.588824    0.235882    0.353529     0.005394
PD6442   PD        0.588824    0.265294    0.382941     0.005394
AU6443   AU        0.618235    0.235882    0.382941     0.007504
PD6444   PD        0.618235    0.265294    0.353529     0.005394
AU6445   AU        0.647647    0.235882    0.353529     0.007504
AU6446   AU        0.647647    0.265294    0.382941     0.007504
PD6447   PD        0.677059    0.235882    0.382941     0.005394
AU6448   AU        0.677059    0.265294    0.353529     0.007504
PD6449   PD        0.706471    0.235882    0.353529     0.005394
PD6450   PD        0.706471    0.265294    0.382941     0.005394
AU6452   AU        0.735882    0.265294    0.353529     0.007504
PD6478   PD        0.177059    0.324118    0.382941     0.005394
AU6479   AU        0.206471    0.294706    0.382941     0.007504
PD6480   PD        0.206471    0.324118    0.353529     0.005394
AU6481   AU        0.235882    0.294706    0.353529     0.007504
AU6482   AU        0.235882    0.324118    0.382941     0.007504
AU6483   AU        0.265294    0.294706    0.382941     0.007504
PD6484   PD        0.265294    0.324118    0.353529     0.005394
PD6485   PD        0.294706    0.294706    0.353529     0.005394
AU6486   AU        0.294706    0.324118    0.382941     0.007504
AU6487   AU        0.324118    0.294706    0.382941     0.007504
AU6488   AU        0.324118    0.324118    0.353529     0.007504
PD6489   PD        0.353529    0.294706    0.353529     0.005394
AU6490   AU        0.353529    0.324118    0.382941     0.007504
AU6491   AU        0.382941    0.294706    0.382941     0.007504
PD6492   PD        0.382941    0.324118    0.353529     0.005394
PD6493   PD        0.412353    0.294706    0.353529     0.005394
AU6494   AU        0.412353    0.324118    0.382941     0.007504
AU6495   AU        0.441765    0.294706    0.382941     0.007504
AU6496   AU        0.441765    0.324118    0.353529     0.007504
PD6497   PD        0.471176    0.294706    0.353529     0.005394
PD6498   PD        0.471176    0.324118    0.382941     0.005394
PD6499   PD        0.500588    0.294706    0.382941     0.005394
PD6500   PD        0.500588    0.324118    0.353529     0.005394
AU6501   AU        0.530000    0.294706    0.353529     0.007504
AU6502   AU        0.530000    0.324118    0.382941     0.007504
AU6503   AU        0.559412    0.294706    0.382941     0.007504
AU6504   AU        0.559412    0.324118    0.353529     0.007504
PD6505   PD        0.588824    0.294706    0.353529     0.005394
AU6506   AU        0.588824    0.324118    0.382941     0.007504
PD6507   PD        0.618235    0.294706    0.382941     0.005394
AU6508   AU        0.618235    0.324118    0.353529     0.007504
PD6509   PD        0.647647    0.294706    0.353529     0.005394
AU6510   AU        0.647647    0.324118    0.382941     0.007504
AU6511   AU        0.677059    0.294706    0.382941     0.007504
AU6512   AU        0.677059    0.324118    0.353529     0.007504
AU6513   AU        0.706471    0.294706    0.353529     0.007504
PD6514   PD        0.706471    0.324118    0.382941     0.005394
PD6515   PD        0.735882    0.294706    0.382941     0.005394
PD6516   PD        0.735882    0.324118    0.353529     0.005394
PD6518   PD        0.765294    0.324118    0.382941     0.005394
PD6539   PD        0.147647    0.353529    0.382941     0.005394
AU6540   AU        0.147647    0.382941    0.353529     0.007504
AU6541   AU        0.177059    0.353529    0.353529     0.007504
AU6542   AU        0.177059    0.382941    0.382941     0.007504
AU6543   AU        0.206471    0.353529    0.382941     0.007504
PD6544   PD        0.206471    0.382941    0.353529     0.005394
PD6545   PD        0.235882    0.353529    0.353529     0.005394
AU6546   AU        0.235882    0.382941    0.382941     0.007504
PD6547   PD        0.265294    0.353529    0.382941     0.005394
AU6548   AU        0.265294    0.382941    0.353529     0.007504
AU6549   AU        0.294706    0.353529    0.353529     0.007504
AU6550   AU        0.294706    0.382941    0.382941     0.007504
PD6551   PD        0.324118    0.353529    0.382941     0.005394
AU6552   AU        0.324118    0.382941    0.353529     0.007504
PD6553   PD        0.353529    0.353529    0.353529     0.005394
AU6554   AU        0.353529    0.382941    0.382941     0.007504
AU6555   AU        0.382941    0.353529    0.382941     0.007504
AU6556   AU        0.382941    0.382941    0.353529     0.007504
AU6557   AU        0.412353    0.353529    0.353529     0.007504
PD6558   PD        0.412353    0.382941    0.382941     0.005394
AU6559   AU        0.441765    0.353529    0.382941     0.007504
PD6560   PD        0.441765    0.382941    0.353529     0.005394
PD6561   PD        0.471176    0.353529    0.353529     0.005394
AU6562   AU        0.471176    0.382941    0.382941     0.007504
AU6563   AU        0.500588    0.353529    0.382941     0.007504
AU6564   AU        0.500588    0.382941    0.353529     0.007504
AU6565   AU        0.530000    0.353529    0.353529     0.007504
AU6566   AU        0.530000    0.382941    0.382941     0.007504
AU6567   AU        0.559412    0.353529    0.382941     0.007504
PD6568   PD        0.559412    0.382941    0.353529     0.005394
AU6569   AU        0.588824    0.353529    0.353529     0.007504
PD6570   PD        0.588824    0.382941    0.382941     0.005394
AU6571   AU        0.618235    0.353529    0.382941     0.007504
AU6572   AU        0.618235    0.382941    0.353529     0.007504
PD6573   PD        0.647647    0.353529    0.353529     0.005394
PD6574   PD        0.647647    0.382941    0.382941     0.005394
AU6575   AU        0.677059    0.353529    0.382941     0.007504
AU6576   AU        0.677059    0.382941    0.353529     0.007504
PD6577   PD        0.706471    0.353529    0.353529     0.005394
AU6578   AU        0.706471    0.382941    0.382941     0.007504
AU6579   AU        0.735882    0.353529    0.382941     0.007504
PD6580   PD        0.735882    0.382941    0.353529     0.005394
AU6581   AU        0.765294    0.353529    0.353529     0.007504
AU6582   AU        0.765294    0.382941    0.382941     0.007504
PD6583   PD        0.794706    0.353529    0.382941     0.005394
PD6584   PD        0.794706    0.382941    0.353529     0.005394
PD6603   PD        0.147647    0.412353    0.382941     0.005394
PD6604   PD        0.147647    0.441765    0.353529     0.005394
AU6605   AU        0.177059    0.412353    0.353529     0.007504
PD6606   PD        0.177059    0.441765    0.382941     0.005394
PD6607   PD        0.206471    0.412353    0.382941     0.005394
AU6608   AU        0.206471    0.441765    0.353529     0.007504
AU6609   AU        0.235882    0.412353    0.353529     0.007504
AU6610   AU        0.235882    0.441765    0.382941     0.007504
PD6611   PD        0.265294    0.412353    0.382941     0.005394
PD6612   PD        0.265294    0.441765    0.353529     0.005394
AU6613   AU        0.294706    0.412353    0.353529     0.007504
AU6614   AU        0.294706    0.441765    0.382941     0.007504
PD6615   PD        0.324118    0.412353    0.382941     0.005394
AU6616   AU        0.324118    0.441765    0.353529     0.007504
PD6617   PD        0.353529    0.412353    0.353529     0.005394
PD6618   PD        0.353529    0.441765    0.382941     0.005394
AU6619   AU        0.382941    0.412353    0.382941     0.007504
PD6620   PD        0.382941    0.441765    0.353529     0.005394
PD6621   PD        0.412353    0.412353    0.353529     0.005394
AU6622   AU        0.412353    0.441765    0.382941     0.007504
AU6623   AU        0.441765    0.412353    0.382941     0.007504
AU6624   AU        0.441765    0.441765    0.353529     0.007504
PD6625   PD        0.471176    0.412353    0.353529     0.005394
PD6626   PD        0.471176    0.441765    0.382941     0.005394
AU6627   AU        0.500588    0.412353    0.382941     0.007504
PD6628   PD        0.500588    0.441765    0.353529     0.005394
AU6629   AU        0.530000    0.412353    0.353529     0.007504
AU6630   AU        0.530000    0.441765    0.382941     0.007504
PD6631   PD        0.559412    0.412353    0.382941     0.005394
PD6632   PD        0.559412    0.441765    0.353529     0.005394
PD6633   PD        0.588824    0.412353    0.353529     0.005394
AU6634   AU        0.588824    0.441765    0.382941     0.007504
PD6635   PD        0.618235    0.412353    0.382941     0.005394
PD6636   PD        0.618235    0.441765    0.353529     0.005394
AU6637   AU        0.647647    0.412353    0.353529     0.007504
PD6638   PD        0.647647    0.441765    0.382941     0.005394
AU6639   AU        0.677059    0.412353    0.382941     0.007504
AU6640   AU        0.677059    0.441765    0.353529     0.007504
AU6641   AU        0.706471    0.412353    0.353529     0.007504
PD6642   PD        0.706471    0.441765    0.382941     0.005394
AU6643   AU        0.735882    0.412353    0.382941     0.007504
AU6644   AU        0.735882    0.441765    0.353529     0.007504
PD6645   PD        0.765294    0.412353    0.353529     0.005394
PD6646   PD        0.765294    0.441765    0.382941     0.005394
PD6647   PD        0.794706    0.412353    0.382941     0.005394
PD6648   PD        0.794706    0.441765    0.353529     0.005394
PD6667   PD        0.147647    0.471176    0.382941     0.005394
PD6668   PD        0.147647    0.500588    0.353529     0.005394
PD6669   PD        0.177059    0.471176    0.353529     0.005394
PD6670   PD        0.177059    0.500588    0.382941     0.005394
AU6671   AU        0.206471    0.471176    0.382941     0.007504
PD6672   PD        0.206471    0.500588    0.353529     0.005394
PD6673   PD        0.235882    0.471176    0.353529     0.005394
AU6674   AU        0.235882    0.500588    0.382941     0.007504
AU6675   AU        0.265294    0.471176    0.382941     0.007504
PD6676   PD        0.265294    0.500588    0.353529     0.005394
PD6677   PD        0.294706    0.471176    0.353529     0.005394
AU6678   AU        0.294706    0.500588    0.382941     0.007504
AU6679   AU        0.324118    0.471176    0.382941     0.007504
AU6680   AU        0.324118    0.500588    0.353529     0.007504
PD6681   PD        0.353529    0.471176    0.353529     0.005394
PD6682   PD        0.353529    0.500588    0.382941     0.005394
AU6683   AU        0.382941    0.471176    0.382941     0.007504
PD6684   PD        0.382941    0.500588    0.353529     0.005394
PD6685   PD        0.412353    0.471176    0.353529     0.005394
PD6686   PD        0.412353    0.500588    0.382941     0.005394
PD6687   PD        0.441765    0.471176    0.382941     0.005394
PD6688   PD        0.441765    0.500588    0.353529     0.005394
AU6689   AU        0.471176    0.471176    0.353529     0.007504
PD6690   PD        0.471176    0.500588    0.382941     0.005394
PD6691   PD        0.500588    0.471176    0.382941     0.005394
AU6692   AU        0.500588    0.500588    0.353529     0.007504
PD6693   PD        0.530000    0.471176    0.353529     0.005394
PD6694   PD        0.530000    0.500588    0.382941     0.005394
AU6695   AU        0.559412    0.471176    0.382941     0.007504
AU6696   AU        0.559412    0.500588    0.353529     0.007504
AU6697   AU        0.588824    0.471176    0.353529     0.007504
AU6698   AU        0.588824    0.500588    0.382941     0.007504
AU6699   AU        0.618235    0.471176    0.382941     0.007504
PD6700   PD        0.618235    0.500588    0.353529     0.005394
PD6701   PD        0.647647    0.471176    0.353529     0.005394
AU6702   AU        0.647647    0.500588    0.382941     0.007504
PD6703   PD        0.677059    0.471176    0.382941     0.005394
PD6704   PD        0.677059    0.500588    0.353529     0.005394
AU6705   AU        0.706471    0.471176    0.353529     0.007504
AU6706   AU        0.706471    0.500588    0.382941     0.007504
PD6707   PD        0.735882    0.471176    0.382941     0.005394
PD6708   PD        0.735882    0.500588    0.353529     0.005394
PD6709   PD        0.765294    0.471176    0.353529     0.005394
PD6710   PD        0.765294    0.500588    0.382941     0.005394
AU6711   AU        0.794706    0.471176    0.382941     0.007504
AU6712   AU        0.794706    0.500588    0.353529     0.007504
PD6731   PD        0.147647    0.530000    0.382941     0.005394
AU6732   AU        0.147647    0.559412    0.353529     0.007504
PD6733   PD        0.177059    0.530000    0.353529     0.005394
PD6734   PD        0.177059    0.559412    0.382941     0.005394
AU6735   AU        0.206471    0.530000    0.382941     0.007504
AU6736   AU        0.206471    0.559412    0.353529     0.007504
AU6737   AU        0.235882    0.530000    0.353529     0.007504
PD6738   PD        0.235882    0.559412    0.382941     0.005394
PD6739   PD        0.265294    0.530000    0.382941     0.005394
AU6740   AU        0.265294    0.559412    0.353529     0.007504
PD6741   PD        0.294706    0.530000    0.353529     0.005394
AU6742   AU        0.294706    0.559412    0.382941     0.007504
PD6743   PD        0.324118    0.530000    0.382941     0.005394
PD6744   PD        0.324118    0.559412    0.353529     0.005394
AU6745   AU        0.353529    0.530000    0.353529     0.007504
AU6746   AU        0.353529    0.559412    0.382941     0.007504
AU6747   AU        0.382941    0.530000    0.382941     0.007504
AU6748   AU        0.382941    0.559412    0.353529     0.007504
AU6749   AU        0.412353    0.530000    0.353529     0.007504
PD6750   PD        0.412353    0.559412    0.382941     0.005394
AU6751   AU        0.441765    0.530000    0.382941     0.007504
AU6752   AU        0.441765    0.559412    0.353529     0.007504
AU6753   AU        0.471176    0.530000    0.353529     0.007504
PD6754   PD        0.471176    0.559412    0.382941     0.005394
PD6755   PD        0.500588    0.530000    0.382941     0.005394
AU6756   AU        0.500588    0.559412    0.353529     0.007504
AU6757   AU        0.530000    0.530000    0.353529     0.007504
AU6758   AU        0.530000    0.559412    0.382941     0.007504
AU6759   AU        0.559412    0.530000    0.382941     0.007504
AU6760   AU        0.559412    0.559412    0.353529     0.007504
PD6761   PD        0.588824    0.530000    0.353529     0.005394
AU6762   AU        0.588824    0.559412    0.382941     0.007504
PD6763   PD        0.618235    0.530000    0.382941     0.005394
PD6764   PD        0.618235    0.559412    0.353529     0.005394
PD6765   PD        0.647647    0.530000    0.353529     0.005394
AU6766   AU        0.647647    0.559412    0.382941     0.007504
AU6767   AU        0.677059    0.530000    0.382941     0.007504
AU6768   AU        0.677059    0.559412    0.353529     0.007504
AU6769   AU        0.706471    0.530000    0.353529     0.007504
PD6770   PD        0.706471    0.559412    0.382941     0.005394
AU6771   AU        0.735882    0.530000    0.382941     0.007504
AU6772   AU        0.735882    0.559412    0.353529     0.007504
PD6773   PD        0.765294    0.530000    0.353529     0.005394
PD6774   PD        0.765294    0.559412    0.382941     0.005394
AU6775   AU        0.794706    0.530000    0.382941     0.007504
AU6776   AU        0.794706    0.559412    0.353529     0.007504
AU6795   AU        0.147647    0.588824    0.382941     0.007504
PD6797   PD        0.177059    0.588824    0.353529     0.005394
AU6798   AU        0.177059    0.618235    0.382941     0.007504
PD6799   PD        0.206471    0.588824    0.382941     0.005394
PD6800   PD        0.206471    0.618235    0.353529     0.005394
AU6801   AU        0.235882    0.588824    0.353529     0.007504
AU6802   AU        0.235882    0.618235    0.382941     0.007504
PD6803   PD        0.265294    0.588824    0.382941     0.005394
AU6804   AU        0.265294    0.618235    0.353529     0.007504
PD6805   PD        0.294706    0.588824    0.353529     0.005394
AU6806   AU        0.294706    0.618235    0.382941     0.007504
AU6807   AU        0.324118    0.588824    0.382941     0.007504
AU6808   AU        0.324118    0.618235    0.353529     0.007504
AU6809   AU        0.353529    0.588824    0.353529     0.007504
PD6810   PD        0.353529    0.618235    0.382941     0.005394
AU6811   AU        0.382941    0.588824    0.382941     0.007504
AU6812   AU        0.382941    0.618235    0.353529     0.007504
PD6813   PD        0.412353    0.588824    0.353529     0.005394
PD6814   PD        0.412353    0.618235    0.382941     0.005394
AU6815   AU        0.441765    0.588824    0.382941     0.007504
PD6816   PD        0.441765    0.618235    0.353529     0.005394
AU6817   AU        0.471176    0.588824    0.353529     0.007504
AU6818   AU        0.471176    0.618235    0.382941     0.007504
PD6819   PD        0.500588    0.588824    0.382941     0.005394
AU6820   AU        0.500588    0.618235    0.353529     0.007504
AU6821   AU        0.530000    0.588824    0.353529     0.007504
PD6822   PD        0.530000    0.618235    0.382941     0.005394
PD6823   PD        0.559412    0.588824    0.382941     0.005394
AU6824   AU        0.559412    0.618235    0.353529     0.007504
AU6825   AU        0.588824    0.588824    0.353529     0.007504
PD6826   PD        0.588824    0.618235    0.382941     0.005394
AU6827   AU        0.618235    0.588824    0.382941     0.007504
PD6828   PD        0.618235    0.618235    0.353529     0.005394
PD6829   PD        0.647647    0.588824    0.353529     0.005394
AU6830   AU        0.647647    0.618235    0.382941     0.007504
AU6831   AU        0.677059    0.588824    0.382941     0.007504
AU6832   AU        0.677059    0.618235    0.353529     0.007504
PD6833   PD        0.706471    0.588824    0.353529     0.005394
AU6834   AU        0.706471    0.618235    0.382941     0.007504
PD6835   PD        0.735882    0.588824    0.382941     0.005394
AU6836   AU        0.735882    0.618235    0.353529     0.007504
AU6837   AU        0.765294    0.588824    0.353529     0.007504
PD6838   PD        0.765294    0.618235    0.382941     0.005394
PD6839   PD        0.794706    0.588824    0.382941     0.005394
AU6863   AU        0.206471    0.647647    0.382941     0.007504
AU6864   AU        0.206471    0.677059    0.353529     0.007504
AU6865   AU        0.235882    0.647647    0.353529     0.007504
AU6866   AU        0.235882    0.677059    0.382941     0.007504
PD6867   PD        0.265294    0.647647    0.382941     0.005394
PD6868   PD        0.265294    0.677059    0.353529     0.005394
PD6869   PD        0.294706    0.647647    0.353529     0.005394
PD6870   PD        0.294706    0.677059    0.382941     0.005394
PD6871   PD        0.324118    0.647647    0.382941     0.005394
PD6872   PD        0.324118    0.677059    0.353529     0.005394
PD6873   PD        0.353529    0.647647    0.353529     0.005394
PD6874   PD        0.353529    0.677059    0.382941     0.005394
AU6875   AU        0.382941    0.647647    0.382941     0.007504
AU6876   AU        0.382941    0.677059    0.353529     0.007504
PD6877   PD        0.412353    0.647647    0.353529     0.005394
AU6878   AU        0.412353    0.677059    0.382941     0.007504
AU6879   AU        0.441765    0.647647    0.382941     0.007504
AU6880   AU        0.441765    0.677059    0.353529     0.007504
AU6881   AU        0.471176    0.647647    0.353529     0.007504
PD6882   PD        0.471176    0.677059    0.382941     0.005394
PD6883   PD        0.500588    0.647647    0.382941     0.005394
PD6884   PD        0.500588    0.677059    0.353529     0.005394
AU6885   AU        0.530000    0.647647    0.353529     0.007504
PD6886   PD        0.530000    0.677059    0.382941     0.005394
AU6887   AU        0.559412    0.647647    0.382941     0.007504
AU6888   AU        0.559412    0.677059    0.353529     0.007504
AU6889   AU        0.588824    0.647647    0.353529     0.007504
AU6890   AU        0.588824    0.677059    0.382941     0.007504
PD6891   PD        0.618235    0.647647    0.382941     0.005394
AU6892   AU        0.618235    0.677059    0.353529     0.007504
AU6893   AU        0.647647    0.647647    0.353529     0.007504
AU6894   AU        0.647647    0.677059    0.382941     0.007504
PD6895   PD        0.677059    0.647647    0.382941     0.005394
PD6896   PD        0.677059    0.677059    0.353529     0.005394
PD6897   PD        0.706471    0.647647    0.353529     0.005394
PD6898   PD        0.706471    0.677059    0.382941     0.005394
AU6899   AU        0.735882    0.647647    0.382941     0.007504
PD6900   PD        0.735882    0.677059    0.353529     0.005394
PD6929   PD        0.235882    0.706471    0.353529     0.005394
AU6931   AU        0.265294    0.706471    0.382941     0.007504
PD6932   PD        0.265294    0.735882    0.353529     0.005394
PD6933   PD        0.294706    0.706471    0.353529     0.005394
PD6934   PD        0.294706    0.735882    0.382941     0.005394
PD6935   PD        0.324118    0.706471    0.382941     0.005394
AU6936   AU        0.324118    0.735882    0.353529     0.007504
AU6937   AU        0.353529    0.706471    0.353529     0.007504
AU6938   AU        0.353529    0.735882    0.382941     0.007504
PD6939   PD        0.382941    0.706471    0.382941     0.005394
AU6940   AU        0.382941    0.735882    0.353529     0.007504
AU6941   AU        0.412353    0.706471    0.353529     0.007504
AU6942   AU        0.412353    0.735882    0.382941     0.007504
AU6943   AU        0.441765    0.706471    0.382941     0.007504
PD6944   PD        0.441765    0.735882    0.353529     0.005394
AU6945   AU        0.471176    0.706471    0.353529     0.007504
AU6946   AU        0.471176    0.735882    0.382941     0.007504
AU6947   AU        0.500588    0.706471    0.382941     0.007504
AU6948   AU        0.500588    0.735882    0.353529     0.007504
PD6949   PD        0.530000    0.706471    0.353529     0.005394
PD6950   PD        0.530000    0.735882    0.382941     0.005394
PD6951   PD        0.559412    0.706471    0.382941     0.005394
PD6952   PD        0.559412    0.735882    0.353529     0.005394
PD6953   PD        0.588824    0.706471    0.353529     0.005394
AU6954   AU        0.588824    0.735882    0.382941     0.007504
PD6955   PD        0.618235    0.706471    0.382941     0.005394
AU6956   AU        0.618235    0.735882    0.353529     0.007504
PD6957   PD        0.647647    0.706471    0.353529     0.005394
PD6958   PD        0.647647    0.735882    0.382941     0.005394
PD6959   PD        0.677059    0.706471    0.382941     0.005394
PD6960   PD        0.677059    0.735882    0.353529     0.005394
AU6961   AU        0.706471    0.706471    0.353529     0.007504
AU6999   AU        0.324118    0.765294    0.382941     0.007504
PD7001   PD        0.353529    0.765294    0.353529     0.005394
AU7002   AU        0.353529    0.794706    0.382941     0.007504
PD7003   PD        0.382941    0.765294    0.382941     0.005394
AU7004   AU        0.382941    0.794706    0.353529     0.007504
PD7005   PD        0.412353    0.765294    0.353529     0.005394
AU7006   AU        0.412353    0.794706    0.382941     0.007504
AU7007   AU        0.441765    0.765294    0.382941     0.007504
PD7008   PD        0.441765    0.794706    0.353529     0.005394
PD7009   PD        0.471176    0.765294    0.353529     0.005394
AU7010   AU        0.471176    0.794706    0.382941     0.007504
AU7011   AU        0.500588    0.765294    0.382941     0.007504
PD7012   PD        0.500588    0.794706    0.353529     0.005394
AU7013   AU        0.530000    0.765294    0.353529     0.007504
PD7014   PD        0.530000    0.794706    0.382941     0.005394
AU7015   AU        0.559412    0.765294    0.382941     0.007504
PD7016   PD        0.559412    0.794706    0.353529     0.005394
PD7017   PD        0.588824    0.765294    0.353529     0.005394
PD7018   PD        0.588824    0.794706    0.382941     0.005394
AU7019   AU        0.618235    0.765294    0.382941     0.007504
PD7320   PD        0.324118    0.147647    0.412353     0.005394
AU7322   AU        0.353529    0.147647    0.441765     0.007504
AU7324   AU        0.382941    0.147647    0.412353     0.007504
AU7326   AU        0.412353    0.147647    0.441765     0.007504
PD7327   PD        0.441765    0.118235    0.441765     0.005394
PD7328   PD        0.441765    0.147647    0.412353     0.005394
AU7329   AU        0.471176    0.118235    0.412353     0.007504
AU7330   AU        0.471176    0.147647    0.441765     0.007504
PD7331   PD        0.500588    0.118235    0.441765     0.005394
PD7332   PD        0.500588    0.147647    0.412353     0.005394
AU7334   AU        0.530000    0.147647    0.441765     0.007504
AU7336   AU        0.559412    0.147647    0.412353     0.007504
PD7338   PD        0.588824    0.147647    0.441765     0.005394
PD7340   PD        0.618235    0.147647    0.412353     0.005394
AU7378   AU        0.235882    0.206471    0.441765     0.007504
PD7379   PD        0.265294    0.177059    0.441765     0.005394
PD7380   PD        0.265294    0.206471    0.412353     0.005394
PD7381   PD        0.294706    0.177059    0.412353     0.005394
PD7382   PD        0.294706    0.206471    0.441765     0.005394
AU7383   AU        0.324118    0.177059    0.441765     0.007504
PD7384   PD        0.324118    0.206471    0.412353     0.005394
AU7385   AU        0.353529    0.177059    0.412353     0.007504
AU7386   AU        0.353529    0.206471    0.441765     0.007504
AU7387   AU        0.382941    0.177059    0.441765     0.007504
PD7388   PD        0.382941    0.206471    0.412353     0.005394
AU7389   AU        0.412353    0.177059    0.412353     0.007504
PD7390   PD        0.412353    0.206471    0.441765     0.005394
PD7391   PD        0.441765    0.177059    0.441765     0.005394
PD7392   PD        0.441765    0.206471    0.412353     0.005394
AU7393   AU        0.471176    0.177059    0.412353     0.007504
AU7394   AU        0.471176    0.206471    0.441765     0.007504
PD7395   PD        0.500588    0.177059    0.441765     0.005394
PD7396   PD        0.500588    0.206471    0.412353     0.005394
PD7397   PD        0.530000    0.177059    0.412353     0.005394
PD7398   PD        0.530000    0.206471    0.441765     0.005394
AU7399   AU        0.559412    0.177059    0.441765     0.007504
AU7400   AU        0.559412    0.206471    0.412353     0.007504
PD7401   PD        0.588824    0.177059    0.412353     0.005394
AU7402   AU        0.588824    0.206471    0.441765     0.007504
AU7403   AU        0.618235    0.177059    0.441765     0.007504
AU7404   AU        0.618235    0.206471    0.412353     0.007504
AU7405   AU        0.647647    0.177059    0.412353     0.007504
PD7406   PD        0.647647    0.206471    0.441765     0.005394
AU7407   AU        0.677059    0.177059    0.441765     0.007504
PD7408   PD        0.677059    0.206471    0.412353     0.005394
AU7410   AU        0.706471    0.206471    0.441765     0.007504
AU7438   AU        0.177059    0.265294    0.441765     0.007504
PD7439   PD        0.206471    0.235882    0.441765     0.005394
AU7440   AU        0.206471    0.265294    0.412353     0.007504
AU7441   AU        0.235882    0.235882    0.412353     0.007504
PD7442   PD        0.235882    0.265294    0.441765     0.005394
AU7443   AU        0.265294    0.235882    0.441765     0.007504
PD7444   PD        0.265294    0.265294    0.412353     0.005394
PD7445   PD        0.294706    0.235882    0.412353     0.005394
AU7446   AU        0.294706    0.265294    0.441765     0.007504
AU7447   AU        0.324118    0.235882    0.441765     0.007504
PD7448   PD        0.324118    0.265294    0.412353     0.005394
AU7449   AU        0.353529    0.235882    0.412353     0.007504
AU7450   AU        0.353529    0.265294    0.441765     0.007504
AU7451   AU        0.382941    0.235882    0.441765     0.007504
AU7452   AU        0.382941    0.265294    0.412353     0.007504
PD7453   PD        0.412353    0.235882    0.412353     0.005394
AU7454   AU        0.412353    0.265294    0.441765     0.007504
AU7455   AU        0.441765    0.235882    0.441765     0.007504
AU7456   AU        0.441765    0.265294    0.412353     0.007504
PD7457   PD        0.471176    0.235882    0.412353     0.005394
AU7458   AU        0.471176    0.265294    0.441765     0.007504
PD7459   PD        0.500588    0.235882    0.441765     0.005394
AU7460   AU        0.500588    0.265294    0.412353     0.007504
PD7461   PD        0.530000    0.235882    0.412353     0.005394
AU7462   AU        0.530000    0.265294    0.441765     0.007504
PD7463   PD        0.559412    0.235882    0.441765     0.005394
AU7464   AU        0.559412    0.265294    0.412353     0.007504
AU7465   AU        0.588824    0.235882    0.412353     0.007504
AU7466   AU        0.588824    0.265294    0.441765     0.007504
PD7467   PD        0.618235    0.235882    0.441765     0.005394
PD7468   PD        0.618235    0.265294    0.412353     0.005394
AU7469   AU        0.647647    0.235882    0.412353     0.007504
AU7470   AU        0.647647    0.265294    0.441765     0.007504
AU7471   AU        0.677059    0.235882    0.441765     0.007504
PD7472   PD        0.677059    0.265294    0.412353     0.005394
PD7473   PD        0.706471    0.235882    0.412353     0.005394
PD7474   PD        0.706471    0.265294    0.441765     0.005394
PD7475   PD        0.735882    0.235882    0.441765     0.005394
PD7476   PD        0.735882    0.265294    0.412353     0.005394
PD7478   PD        0.765294    0.265294    0.441765     0.005394
AU7500   AU        0.147647    0.324118    0.412353     0.007504
PD7501   PD        0.177059    0.294706    0.412353     0.005394
AU7502   AU        0.177059    0.324118    0.441765     0.007504
AU7503   AU        0.206471    0.294706    0.441765     0.007504
AU7504   AU        0.206471    0.324118    0.412353     0.007504
PD7505   PD        0.235882    0.294706    0.412353     0.005394
PD7506   PD        0.235882    0.324118    0.441765     0.005394
AU7507   AU        0.265294    0.294706    0.441765     0.007504
AU7508   AU        0.265294    0.324118    0.412353     0.007504
PD7509   PD        0.294706    0.294706    0.412353     0.005394
PD7510   PD        0.294706    0.324118    0.441765     0.005394
PD7511   PD        0.324118    0.294706    0.441765     0.005394
AU7512   AU        0.324118    0.324118    0.412353     0.007504
AU7513   AU        0.353529    0.294706    0.412353     0.007504
PD7514   PD        0.353529    0.324118    0.441765     0.005394
PD7515   PD        0.382941    0.294706    0.441765     0.005394
AU7516   AU        0.382941    0.324118    0.412353     0.007504
PD7517   PD        0.412353    0.294706    0.412353     0.005394
AU7518   AU        0.412353    0.324118    0.441765     0.007504
AU7519   AU        0.441765    0.294706    0.441765     0.007504
PD7520   PD        0.441765    0.324118    0.412353     0.005394
AU7521   AU        0.471176    0.294706    0.412353     0.007504
AU7522   AU        0.471176    0.324118    0.441765     0.007504
PD7523   PD        0.500588    0.294706    0.441765     0.005394
PD7524   PD        0.500588    0.324118    0.412353     0.005394
AU7525   AU        0.530000    0.294706    0.412353     0.007504
AU7526   AU        0.530000    0.324118    0.441765     0.007504
AU7527   AU        0.559412    0.294706    0.441765     0.007504
AU7528   AU        0.559412    0.324118    0.412353     0.007504
AU7529   AU        0.588824    0.294706    0.412353     0.007504
AU7530   AU        0.588824    0.324118    0.441765     0.007504
AU7531   AU        0.618235    0.294706    0.441765     0.007504
AU7532   AU        0.618235    0.324118    0.412353     0.007504
AU7533   AU        0.647647    0.294706    0.412353     0.007504
AU7534   AU        0.647647    0.324118    0.441765     0.007504
PD7535   PD        0.677059    0.294706    0.441765     0.005394
AU7536   AU        0.677059    0.324118    0.412353     0.007504
AU7537   AU        0.706471    0.294706    0.412353     0.007504
AU7538   AU        0.706471    0.324118    0.441765     0.007504
PD7539   PD        0.735882    0.294706    0.441765     0.005394
AU7540   AU        0.735882    0.324118    0.412353     0.007504
PD7541   PD        0.765294    0.294706    0.412353     0.005394
AU7542   AU        0.765294    0.324118    0.441765     0.007504
AU7544   AU        0.794706    0.324118    0.412353     0.007504
PD7563   PD        0.147647    0.353529    0.441765     0.005394
PD7564   PD        0.147647    0.382941    0.412353     0.005394
PD7565   PD        0.177059    0.353529    0.412353     0.005394
PD7566   PD        0.177059    0.382941    0.441765     0.005394
PD7567   PD        0.206471    0.353529    0.441765     0.005394
PD7568   PD        0.206471    0.382941    0.412353     0.005394
AU7569   AU        0.235882    0.353529    0.412353     0.007504
AU7570   AU        0.235882    0.382941    0.441765     0.007504
PD7571   PD        0.265294    0.353529    0.441765     0.005394
PD7572   PD        0.265294    0.382941    0.412353     0.005394
PD7573   PD        0.294706    0.353529    0.412353     0.005394
AU7574   AU        0.294706    0.382941    0.441765     0.007504
AU7575   AU        0.324118    0.353529    0.441765     0.007504
PD7576   PD        0.324118    0.382941    0.412353     0.005394
PD7577   PD        0.353529    0.353529    0.412353     0.005394
AU7578   AU        0.353529    0.382941    0.441765     0.007504
AU7579   AU        0.382941    0.353529    0.441765     0.007504
AU7580   AU        0.382941    0.382941    0.412353     0.007504
PD7581   PD        0.412353    0.353529    0.412353     0.005394
AU7582   AU        0.412353    0.382941    0.441765     0.007504
AU7583   AU        0.441765    0.353529    0.441765     0.007504
AU7584   AU        0.441765    0.382941    0.412353     0.007504
AU7585   AU        0.471176    0.353529    0.412353     0.007504
AU7586   AU        0.471176    0.382941    0.441765     0.007504
PD7587   PD        0.500588    0.353529    0.441765     0.005394
PD7588   PD        0.500588    0.382941    0.412353     0.005394
AU7589   AU        0.530000    0.353529    0.412353     0.007504
AU7590   AU        0.530000    0.382941    0.441765     0.007504
PD7591   PD        0.559412    0.353529    0.441765     0.005394
PD7592   PD        0.559412    0.382941    0.412353     0.005394
PD7593   PD        0.588824    0.353529    0.412353     0.005394
AU7594   AU        0.588824    0.382941    0.441765     0.007504
PD7595   PD        0.618235    0.353529    0.441765     0.005394
AU7596   AU        0.618235    0.382941    0.412353     0.007504
PD7597   PD        0.647647    0.353529    0.412353     0.005394
AU7598   AU        0.647647    0.382941    0.441765     0.007504
AU7599   AU        0.677059    0.353529    0.441765     0.007504
AU7600   AU        0.677059    0.382941    0.412353     0.007504
PD7601   PD        0.706471    0.353529    0.412353     0.005394
PD7602   PD        0.706471    0.382941    0.441765     0.005394
PD7603   PD        0.735882    0.353529    0.441765     0.005394
AU7604   AU        0.735882    0.382941    0.412353     0.007504
PD7605   PD        0.765294    0.353529    0.412353     0.005394
PD7606   PD        0.765294    0.382941    0.441765     0.005394
AU7607   AU        0.794706    0.353529    0.441765     0.007504
AU7608   AU        0.794706    0.382941    0.412353     0.007504
PD7626   PD        0.118235    0.441765    0.441765     0.005394
PD7627   PD        0.147647    0.412353    0.441765     0.005394
AU7628   AU        0.147647    0.441765    0.412353     0.007504
AU7629   AU        0.177059    0.412353    0.412353     0.007504
PD7630   PD        0.177059    0.441765    0.441765     0.005394
PD7631   PD        0.206471    0.412353    0.441765     0.005394
PD7632   PD        0.206471    0.441765    0.412353     0.005394
AU7633   AU        0.235882    0.412353    0.412353     0.007504
AU7634   AU        0.235882    0.441765    0.441765     0.007504
PD7635   PD        0.265294    0.412353    0.441765     0.005394
AU7636   AU        0.265294    0.441765    0.412353     0.007504
PD7637   PD        0.294706    0.412353    0.412353     0.005394
AU7638   AU        0.294706    0.441765    0.441765     0.007504
PD7639   PD        0.324118    0.412353    0.441765     0.005394
PD7640   PD        0.324118    0.441765    0.412353     0.005394
PD7641   PD        0.353529    0.412353    0.412353     0.005394
AU7642   AU        0.353529    0.441765    0.441765     0.007504
AU7643   AU        0.382941    0.412353    0.441765     0.007504
PD7644   PD        0.382941    0.441765    0.412353     0.005394
PD7645   PD        0.412353    0.412353    0.412353     0.005394
PD7646   PD        0.412353    0.441765    0.441765     0.005394
AU7647   AU        0.441765    0.412353    0.441765     0.007504
AU7648   AU        0.441765    0.441765    0.412353     0.007504
AU7649   AU        0.471176    0.412353    0.412353     0.007504
PD7650   PD        0.471176    0.441765    0.441765     0.005394
AU7651   AU        0.500588    0.412353    0.441765     0.007504
PD7652   PD        0.500588    0.441765    0.412353     0.005394
AU7653   AU        0.530000    0.412353    0.412353     0.007504
AU7654   AU        0.530000    0.441765    0.441765     0.007504
PD7655   PD        0.559412    0.412353    0.441765     0.005394
AU7656   AU        0.559412    0.441765    0.412353     0.007504
AU7657   AU        0.588824    0.412353    0.412353     0.007504
AU7658   AU        0.588824    0.441765    0.441765     0.007504
AU7659   AU        0.618235    0.412353    0.441765     0.007504
PD7660   PD        0.618235    0.441765    0.412353     0.005394
AU7661   AU        0.647647    0.412353    0.412353     0.007504
AU7662   AU        0.647647    0.441765    0.441765     0.007504
AU7663   AU        0.677059    0.412353    0.441765     0.007504
AU7664   AU        0.677059    0.441765    0.412353     0.007504
AU7665   AU        0.706471    0.412353    0.412353     0.007504
PD7666   PD        0.706471    0.441765    0.441765     0.005394
AU7667   AU        0.735882    0.412353    0.441765     0.007504
AU7668   AU        0.735882    0.441765    0.412353     0.007504
AU7669   AU        0.765294    0.412353    0.412353     0.007504
AU7670   AU        0.765294    0.441765    0.441765     0.007504
AU7671   AU        0.794706    0.412353    0.441765     0.007504
AU7672   AU        0.794706    0.441765    0.412353     0.007504
PD7674   PD        0.824118    0.441765    0.441765     0.005394
PD7689   PD        0.118235    0.471176    0.412353     0.005394
PD7690   PD        0.118235    0.500588    0.441765     0.005394
PD7691   PD        0.147647    0.471176    0.441765     0.005394
AU7692   AU        0.147647    0.500588    0.412353     0.007504
AU7693   AU        0.177059    0.471176    0.412353     0.007504
PD7694   PD        0.177059    0.500588    0.441765     0.005394
AU7695   AU        0.206471    0.471176    0.441765     0.007504
AU7696   AU        0.206471    0.500588    0.412353     0.007504
PD7697   PD        0.235882    0.471176    0.412353     0.005394
AU7698   AU        0.235882    0.500588    0.441765     0.007504
AU7699   AU        0.265294    0.471176    0.441765     0.007504
AU7700   AU        0.265294    0.500588    0.412353     0.007504
AU7701   AU        0.294706    0.471176    0.412353     0.007504
PD7702   PD        0.294706    0.500588    0.441765     0.005394
AU7703   AU        0.324118    0.471176    0.441765     0.007504
PD7704   PD        0.324118    0.500588    0.412353     0.005394
PD7705   PD        0.353529    0.471176    0.412353     0.005394
AU7706   AU        0.353529    0.500588    0.441765     0.007504
PD7707   PD        0.382941    0.471176    0.441765     0.005394
PD7708   PD        0.382941    0.500588    0.412353     0.005394
PD7709   PD        0.412353    0.471176    0.412353     0.005394
AU7710   AU        0.412353    0.500588    0.441765     0.007504
AU7711   AU        0.441765    0.471176    0.441765     0.007504
AU7712   AU        0.441765    0.500588    0.412353     0.007504
AU7713   AU        0.471176    0.471176    0.412353     0.007504
AU7714   AU        0.471176    0.500588    0.441765     0.007504
PD7715   PD        0.500588    0.471176    0.441765     0.005394
PD7716   PD        0.500588    0.500588    0.412353     0.005394
AU7717   AU        0.530000    0.471176    0.412353     0.007504
PD7718   PD        0.530000    0.500588    0.441765     0.005394
AU7719   AU        0.559412    0.471176    0.441765     0.007504
PD7720   PD        0.559412    0.500588    0.412353     0.005394
PD7721   PD        0.588824    0.471176    0.412353     0.005394
AU7722   AU        0.588824    0.500588    0.441765     0.007504
AU7723   AU        0.618235    0.471176    0.441765     0.007504
AU7724   AU        0.618235    0.500588    0.412353     0.007504
AU7725   AU        0.647647    0.471176    0.412353     0.007504
AU7726   AU        0.647647    0.500588    0.441765     0.007504
PD7727   PD        0.677059    0.471176    0.441765     0.005394
AU7728   AU        0.677059    0.500588    0.412353     0.007504
AU7729   AU        0.706471    0.471176    0.412353     0.007504
AU7730   AU        0.706471    0.500588    0.441765     0.007504
AU7731   AU        0.735882    0.471176    0.441765     0.007504
PD7732   PD        0.735882    0.500588    0.412353     0.005394
PD7733   PD        0.765294    0.471176    0.412353     0.005394
PD7734   PD        0.765294    0.500588    0.441765     0.005394
AU7735   AU        0.794706    0.471176    0.441765     0.007504
PD7736   PD        0.794706    0.500588    0.412353     0.005394
AU7737   AU        0.824118    0.471176    0.412353     0.007504
PD7738   PD        0.824118    0.500588    0.441765     0.005394
AU7755   AU        0.147647    0.530000    0.441765     0.007504
PD7756   PD        0.147647    0.559412    0.412353     0.005394
AU7757   AU        0.177059    0.530000    0.412353     0.007504
PD7758   PD        0.177059    0.559412    0.441765     0.005394
AU7759   AU        0.206471    0.530000    0.441765     0.007504
AU7760   AU        0.206471    0.559412    0.412353     0.007504
PD7761   PD        0.235882    0.530000    0.412353     0.005394
PD7762   PD        0.235882    0.559412    0.441765     0.005394
PD7763   PD        0.265294    0.530000    0.441765     0.005394
AU7764   AU        0.265294    0.559412    0.412353     0.007504
PD7765   PD        0.294706    0.530000    0.412353     0.005394
PD7766   PD        0.294706    0.559412    0.441765     0.005394
AU7767   AU        0.324118    0.530000    0.441765     0.007504
PD7768   PD        0.324118    0.559412    0.412353     0.005394
AU7769   AU        0.353529    0.530000    0.412353     0.007504
PD7770   PD        0.353529    0.559412    0.441765     0.005394
AU7771   AU        0.382941    0.530000    0.441765     0.007504
AU7772   AU        0.382941    0.559412    0.412353     0.007504
AU7773   AU        0.412353    0.530000    0.412353     0.007504
AU7774   AU        0.412353    0.559412    0.441765     0.007504
PD7775   PD        0.441765    0.530000    0.441765     0.005394
AU7776   AU        0.441765    0.559412    0.412353     0.007504
PD7777   PD        0.471176    0.530000    0.412353     0.005394
AU7778   AU        0.471176    0.559412    0.441765     0.007504
AU7779   AU        0.500588    0.530000    0.441765     0.007504
PD7780   PD        0.500588    0.559412    0.412353     0.005394
PD7781   PD        0.530000    0.530000    0.412353     0.005394
PD7782   PD        0.530000    0.559412    0.441765     0.005394
AU7783   AU        0.559412    0.530000    0.441765     0.007504
PD7784   PD        0.559412    0.559412    0.412353     0.005394
AU7785   AU        0.588824    0.530000    0.412353     0.007504
AU7786   AU        0.588824    0.559412    0.441765     0.007504
PD7787   PD        0.618235    0.530000    0.441765     0.005394
PD7788   PD        0.618235    0.559412    0.412353     0.005394
AU7789   AU        0.647647    0.530000    0.412353     0.007504
AU7790   AU        0.647647    0.559412    0.441765     0.007504
AU7791   AU        0.677059    0.530000    0.441765     0.007504
PD7792   PD        0.677059    0.559412    0.412353     0.005394
PD7793   PD        0.706471    0.530000    0.412353     0.005394
AU7794   AU        0.706471    0.559412    0.441765     0.007504
PD7795   PD        0.735882    0.530000    0.441765     0.005394
PD7796   PD        0.735882    0.559412    0.412353     0.005394
PD7797   PD        0.765294    0.530000    0.412353     0.005394
PD7798   PD        0.765294    0.559412    0.441765     0.005394
PD7799   PD        0.794706    0.530000    0.441765     0.005394
AU7800   AU        0.794706    0.559412    0.412353     0.007504
PD7819   PD        0.147647    0.588824    0.441765     0.005394
PD7820   PD        0.147647    0.618235    0.412353     0.005394
AU7821   AU        0.177059    0.588824    0.412353     0.007504
AU7822   AU        0.177059    0.618235    0.441765     0.007504
AU7823   AU        0.206471    0.588824    0.441765     0.007504
PD7824   PD        0.206471    0.618235    0.412353     0.005394
PD7825   PD        0.235882    0.588824    0.412353     0.005394
AU7826   AU        0.235882    0.618235    0.441765     0.007504
PD7827   PD        0.265294    0.588824    0.441765     0.005394
PD7828   PD        0.265294    0.618235    0.412353     0.005394
AU7829   AU        0.294706    0.588824    0.412353     0.007504
AU7830   AU        0.294706    0.618235    0.441765     0.007504
AU7831   AU        0.324118    0.588824    0.441765     0.007504
PD7832   PD        0.324118    0.618235    0.412353     0.005394
AU7833   AU        0.353529    0.588824    0.412353     0.007504
AU7834   AU        0.353529    0.618235    0.441765     0.007504
AU7835   AU        0.382941    0.588824    0.441765     0.007504
PD7836   PD        0.382941    0.618235    0.412353     0.005394
AU7837   AU        0.412353    0.588824    0.412353     0.007504
AU7838   AU        0.412353    0.618235    0.441765     0.007504
AU7839   AU        0.441765    0.588824    0.441765     0.007504
AU7840   AU        0.441765    0.618235    0.412353     0.007504
PD7841   PD        0.471176    0.588824    0.412353     0.005394
PD7842   PD        0.471176    0.618235    0.441765     0.005394
AU7843   AU        0.500588    0.588824    0.441765     0.007504
PD7844   PD        0.500588    0.618235    0.412353     0.005394
AU7845   AU        0.530000    0.588824    0.412353     0.007504
AU7846   AU        0.530000    0.618235    0.441765     0.007504
AU7847   AU        0.559412    0.588824    0.441765     0.007504
AU7848   AU        0.559412    0.618235    0.412353     0.007504
PD7849   PD        0.588824    0.588824    0.412353     0.005394
AU7850   AU        0.588824    0.618235    0.441765     0.007504
PD7851   PD        0.618235    0.588824    0.441765     0.005394
AU7852   AU        0.618235    0.618235    0.412353     0.007504
AU7853   AU        0.647647    0.588824    0.412353     0.007504
PD7854   PD        0.647647    0.618235    0.441765     0.005394
AU7855   AU        0.677059    0.588824    0.441765     0.007504
PD7856   PD        0.677059    0.618235    0.412353     0.005394
AU7857   AU        0.706471    0.588824    0.412353     0.007504
PD7858   PD        0.706471    0.618235    0.441765     0.005394
AU7859   AU        0.735882    0.588824    0.441765     0.007504
AU7860   AU        0.735882    0.618235    0.412353     0.007504
AU7861   AU        0.765294    0.588824    0.412353     0.007504
AU7862   AU        0.765294    0.618235    0.441765     0.007504
AU7863   AU        0.794706    0.588824    0.441765     0.007504
PD7864   PD        0.794706    0.618235    0.412353     0.005394
PD7885   PD        0.177059    0.647647    0.412353     0.005394
PD7886   PD        0.177059    0.677059    0.441765     0.005394
PD7887   PD        0.206471    0.647647    0.441765     0.005394
PD7888   PD        0.206471    0.677059    0.412353     0.005394
PD7889   PD        0.235882    0.647647    0.412353     0.005394
AU7890   AU        0.235882    0.677059    0.441765     0.007504
AU7891   AU        0.265294    0.647647    0.441765     0.007504
PD7892   PD        0.265294    0.677059    0.412353     0.005394
PD7893   PD        0.294706    0.647647    0.412353     0.005394
AU7894   AU        0.294706    0.677059    0.441765     0.007504
PD7895   PD        0.324118    0.647647    0.441765     0.005394
AU7896   AU        0.324118    0.677059    0.412353     0.007504
PD7897   PD        0.353529    0.647647    0.412353     0.005394
AU7898   AU        0.353529    0.677059    0.441765     0.007504
PD7899   PD        0.382941    0.647647    0.441765     0.005394
PD7900   PD        0.382941    0.677059    0.412353     0.005394
AU7901   AU        0.412353    0.647647    0.412353     0.007504
AU7902   AU        0.412353    0.677059    0.441765     0.007504
PD7903   PD        0.441765    0.647647    0.441765     0.005394
AU7904   AU        0.441765    0.677059    0.412353     0.007504
AU7905   AU        0.471176    0.647647    0.412353     0.007504
AU7906   AU        0.471176    0.677059    0.441765     0.007504
AU7907   AU        0.500588    0.647647    0.441765     0.007504
AU7908   AU        0.500588    0.677059    0.412353     0.007504
AU7909   AU        0.530000    0.647647    0.412353     0.007504
PD7910   PD        0.530000    0.677059    0.441765     0.005394
PD7911   PD        0.559412    0.647647    0.441765     0.005394
AU7912   AU        0.559412    0.677059    0.412353     0.007504
AU7913   AU        0.588824    0.647647    0.412353     0.007504
AU7914   AU        0.588824    0.677059    0.441765     0.007504
AU7915   AU        0.618235    0.647647    0.441765     0.007504
PD7916   PD        0.618235    0.677059    0.412353     0.005394
PD7917   PD        0.647647    0.647647    0.412353     0.005394
AU7918   AU        0.647647    0.677059    0.441765     0.007504
AU7919   AU        0.677059    0.647647    0.441765     0.007504
PD7920   PD        0.677059    0.677059    0.412353     0.005394
AU7921   AU        0.706471    0.647647    0.412353     0.007504
AU7922   AU        0.706471    0.677059    0.441765     0.007504
PD7923   PD        0.735882    0.647647    0.441765     0.005394
AU7924   AU        0.735882    0.677059    0.412353     0.007504
AU7925   AU        0.765294    0.647647    0.412353     0.007504
PD7926   PD        0.765294    0.677059    0.441765     0.005394
PD7951   PD        0.206471    0.706471    0.441765     0.005394
PD7953   PD        0.235882    0.706471    0.412353     0.005394
PD7954   PD        0.235882    0.735882    0.441765     0.005394
PD7955   PD        0.265294    0.706471    0.441765     0.005394
PD7956   PD        0.265294    0.735882    0.412353     0.005394
PD7957   PD        0.294706    0.706471    0.412353     0.005394
AU7958   AU        0.294706    0.735882    0.441765     0.007504
PD7959   PD        0.324118    0.706471    0.441765     0.005394
AU7960   AU        0.324118    0.735882    0.412353     0.007504
PD7961   PD        0.353529    0.706471    0.412353     0.005394
PD7962   PD        0.353529    0.735882    0.441765     0.005394
AU7963   AU        0.382941    0.706471    0.441765     0.007504
PD7964   PD        0.382941    0.735882    0.412353     0.005394
PD7965   PD        0.412353    0.706471    0.412353     0.005394
PD7966   PD        0.412353    0.735882    0.441765     0.005394
AU7967   AU        0.441765    0.706471    0.441765     0.007504
PD7968   PD        0.441765    0.735882    0.412353     0.005394
AU7969   AU        0.471176    0.706471    0.412353     0.007504
PD7970   PD        0.471176    0.735882    0.441765     0.005394
AU7971   AU        0.500588    0.706471    0.441765     0.007504
PD7972   PD        0.500588    0.735882    0.412353     0.005394
AU7973   AU        0.530000    0.706471    0.412353     0.007504
AU7974   AU        0.530000    0.735882    0.441765     0.007504
AU7975   AU        0.559412    0.706471    0.441765     0.007504
AU7976   AU        0.559412    0.735882    0.412353     0.007504
AU7977   AU        0.588824    0.706471    0.412353     0.007504
AU7978   AU        0.588824    0.735882    0.441765     0.007504
AU7979   AU        0.618235    0.706471    0.441765     0.007504
PD7980   PD        0.618235    0.735882    0.412353     0.005394
AU7981   AU        0.647647    0.706471    0.412353     0.007504
AU7982   AU        0.647647    0.735882    0.441765     0.007504
PD7983   PD        0.677059    0.706471    0.441765     0.005394
PD7984   PD        0.677059    0.735882    0.412353     0.005394
AU7985   AU        0.706471    0.706471    0.412353     0.007504
PD7986   PD        0.706471    0.735882    0.441765     0.005394
PD7987   PD        0.735882    0.706471    0.441765     0.005394
PD8019   PD        0.265294    0.765294    0.441765     0.005394
PD8021   PD        0.294706    0.765294    0.412353     0.005394
PD8023   PD        0.324118    0.765294    0.441765     0.005394
AU8024   AU        0.324118    0.794706    0.412353     0.007504
AU8025   AU        0.353529    0.765294    0.412353     0.007504
PD8026   PD        0.353529    0.794706    0.441765     0.005394
AU8027   AU        0.382941    0.765294    0.441765     0.007504
PD8028   PD        0.382941    0.794706    0.412353     0.005394
AU8029   AU        0.412353    0.765294    0.412353     0.007504
AU8030   AU        0.412353    0.794706    0.441765     0.007504
PD8031   PD        0.441765    0.765294    0.441765     0.005394
PD8032   PD        0.441765    0.794706    0.412353     0.005394
AU8033   AU        0.471176    0.765294    0.412353     0.007504
PD8034   PD        0.471176    0.794706    0.441765     0.005394
PD8035   PD        0.500588    0.765294    0.441765     0.005394
PD8036   PD        0.500588    0.794706    0.412353     0.005394
AU8037   AU        0.530000    0.765294    0.412353     0.007504
PD8038   PD        0.530000    0.794706    0.441765     0.005394
AU8039   AU        0.559412    0.765294    0.441765     0.007504
PD8040   PD        0.559412    0.794706    0.412353     0.005394
AU8041   AU        0.588824    0.765294    0.412353     0.007504
PD8042   PD        0.588824    0.794706    0.441765     0.005394
PD8043   PD        0.618235    0.765294    0.441765     0.005394
PD8044   PD        0.618235    0.794706    0.412353     0.005394
AU8045   AU        0.647647    0.765294    0.412353     0.007504
AU8047   AU        0.677059    0.765294    0.441765     0.007504
AU8095   AU        0.441765    0.824118    0.441765     0.007504
AU8097   AU        0.471176    0.824118    0.412353     0.007504
AU8099   AU        0.500588    0.824118    0.441765     0.007504
PD8344   PD        0.324118    0.147647    0.471176     0.005394
AU8346   AU        0.353529    0.147647    0.500588     0.007504
PD8348   PD        0.382941    0.147647    0.471176     0.005394
AU8349   AU        0.412353    0.118235    0.471176     0.007504
AU8350   AU        0.412353    0.147647    0.500588     0.007504
AU8351   AU        0.441765    0.118235    0.500588     0.007504
PD8352   PD        0.441765    0.147647    0.471176     0.005394
PD8353   PD        0.471176    0.118235    0.471176     0.005394
PD8354   PD        0.471176    0.147647    0.500588     0.005394
AU8355   AU        0.500588    0.118235    0.500588     0.007504
PD8356   PD        0.500588    0.147647    0.471176     0.005394
AU8357   AU        0.530000    0.118235    0.471176     0.007504
PD8358   PD        0.530000    0.147647    0.500588     0.005394
AU8360   AU        0.559412    0.147647    0.471176     0.007504
PD8362   PD        0.588824    0.147647    0.500588     0.005394
AU8364   AU        0.618235    0.147647    0.471176     0.007504
PD8402   PD        0.235882    0.206471    0.500588     0.005394
PD8403   PD        0.265294    0.177059    0.500588     0.005394
PD8404   PD        0.265294    0.206471    0.471176     0.005394
PD8405   PD        0.294706    0.177059    0.471176     0.005394
PD8406   PD        0.294706    0.206471    0.500588     0.005394
PD8407   PD        0.324118    0.177059    0.500588     0.005394
PD8408   PD        0.324118    0.206471    0.471176     0.005394
AU8409   AU        0.353529    0.177059    0.471176     0.007504
AU8410   AU        0.353529    0.206471    0.500588     0.007504
AU8411   AU        0.382941    0.177059    0.500588     0.007504
PD8412   PD        0.382941    0.206471    0.471176     0.005394
AU8413   AU        0.412353    0.177059    0.471176     0.007504
AU8414   AU        0.412353    0.206471    0.500588     0.007504
AU8415   AU        0.441765    0.177059    0.500588     0.007504
PD8416   PD        0.441765    0.206471    0.471176     0.005394
PD8417   PD        0.471176    0.177059    0.471176     0.005394
PD8418   PD        0.471176    0.206471    0.500588     0.005394
PD8419   PD        0.500588    0.177059    0.500588     0.005394
AU8420   AU        0.500588    0.206471    0.471176     0.007504
PD8421   PD        0.530000    0.177059    0.471176     0.005394
AU8422   AU        0.530000    0.206471    0.500588     0.007504
PD8423   PD        0.559412    0.177059    0.500588     0.005394
PD8424   PD        0.559412    0.206471    0.471176     0.005394
AU8425   AU        0.588824    0.177059    0.471176     0.007504
AU8426   AU        0.588824    0.206471    0.500588     0.007504
AU8427   AU        0.618235    0.177059    0.500588     0.007504
PD8428   PD        0.618235    0.206471    0.471176     0.005394
AU8429   AU        0.647647    0.177059    0.471176     0.007504
PD8430   PD        0.647647    0.206471    0.500588     0.005394
AU8431   AU        0.677059    0.177059    0.500588     0.007504
PD8432   PD        0.677059    0.206471    0.471176     0.005394
AU8434   AU        0.706471    0.206471    0.500588     0.007504
PD8462   PD        0.177059    0.265294    0.500588     0.005394
PD8463   PD        0.206471    0.235882    0.500588     0.005394
AU8464   AU        0.206471    0.265294    0.471176     0.007504
PD8465   PD        0.235882    0.235882    0.471176     0.005394
PD8466   PD        0.235882    0.265294    0.500588     0.005394
PD8467   PD        0.265294    0.235882    0.500588     0.005394
AU8468   AU        0.265294    0.265294    0.471176     0.007504
PD8469   PD        0.294706    0.235882    0.471176     0.005394
PD8470   PD        0.294706    0.265294    0.500588     0.005394
PD8471   PD        0.324118    0.235882    0.500588     0.005394
AU8472   AU        0.324118    0.265294    0.471176     0.007504
PD8473   PD        0.353529    0.235882    0.471176     0.005394
AU8474   AU        0.353529    0.265294    0.500588     0.007504
AU8475   AU        0.382941    0.235882    0.500588     0.007504
AU8476   AU        0.382941    0.265294    0.471176     0.007504
AU8477   AU        0.412353    0.235882    0.471176     0.007504
AU8478   AU        0.412353    0.265294    0.500588     0.007504
PD8479   PD        0.441765    0.235882    0.500588     0.005394
AU8480   AU        0.441765    0.265294    0.471176     0.007504
AU8481   AU        0.471176    0.235882    0.471176     0.007504
AU8482   AU        0.471176    0.265294    0.500588     0.007504
AU8483   AU        0.500588    0.235882    0.500588     0.007504
AU8484   AU        0.500588    0.265294    0.471176     0.007504
AU8485   AU        0.530000    0.235882    0.471176     0.007504
AU8486   AU        0.530000    0.265294    0.500588     0.007504
PD8487   PD        0.559412    0.235882    0.500588     0.005394
AU8488   AU        0.559412    0.265294    0.471176     0.007504
AU8489   AU        0.588824    0.235882    0.471176     0.007504
PD8490   PD        0.588824    0.265294    0.500588     0.005394
AU8491   AU        0.618235    0.235882    0.500588     0.007504
PD8492   PD        0.618235    0.265294    0.471176     0.005394
PD8493   PD        0.647647    0.235882    0.471176     0.005394
AU8494   AU        0.647647    0.265294    0.500588     0.007504
AU8495   AU        0.677059    0.235882    0.500588     0.007504
AU8496   AU        0.677059    0.265294    0.471176     0.007504
PD8497   PD        0.706471    0.235882    0.471176     0.005394
PD8498   PD        0.706471    0.265294    0.500588     0.005394
PD8499   PD        0.735882    0.235882    0.500588     0.005394
AU8500   AU        0.735882    0.265294    0.471176     0.007504
PD8502   PD        0.765294    0.265294    0.500588     0.005394
AU8524   AU        0.147647    0.324118    0.471176     0.007504
PD8525   PD        0.177059    0.294706    0.471176     0.005394
PD8526   PD        0.177059    0.324118    0.500588     0.005394
AU8527   AU        0.206471    0.294706    0.500588     0.007504
AU8528   AU        0.206471    0.324118    0.471176     0.007504
PD8529   PD        0.235882    0.294706    0.471176     0.005394
PD8530   PD        0.235882    0.324118    0.500588     0.005394
PD8531   PD        0.265294    0.294706    0.500588     0.005394
AU8532   AU        0.265294    0.324118    0.471176     0.007504
AU8533   AU        0.294706    0.294706    0.471176     0.007504
PD8534   PD        0.294706    0.324118    0.500588     0.005394
AU8535   AU        0.324118    0.294706    0.500588     0.007504
AU8536   AU        0.324118    0.324118    0.471176     0.007504
PD8537   PD        0.353529    0.294706    0.471176     0.005394
PD8538   PD        0.353529    0.324118    0.500588     0.005394
AU8539   AU        0.382941    0.294706    0.500588     0.007504
AU8540   AU        0.382941    0.324118    0.471176     0.007504
AU8541   AU        0.412353    0.294706    0.471176     0.007504
AU8542   AU        0.412353    0.324118    0.500588     0.007504
AU8543   AU        0.441765    0.294706    0.500588     0.007504
PD8544   PD        0.441765    0.324118    0.471176     0.005394
AU8545   AU        0.471176    0.294706    0.471176     0.007504
PD8546   PD        0.471176    0.324118    0.500588     0.005394
PD8547   PD        0.500588    0.294706    0.500588     0.005394
AU8548   AU        0.500588    0.324118    0.471176     0.007504
AU8549   AU        0.530000    0.294706    0.471176     0.007504
PD8550   PD        0.530000    0.324118    0.500588     0.005394
PD8551   PD        0.559412    0.294706    0.500588     0.005394
AU8552   AU        0.559412    0.324118    0.471176     0.007504
AU8553   AU        0.588824    0.294706    0.471176     0.007504
AU8554   AU        0.588824    0.324118    0.500588     0.007504
AU8555   AU        0.618235    0.294706    0.500588     0.007504
PD8556   PD        0.618235    0.324118    0.471176     0.005394
AU8557   AU        0.647647    0.294706    0.471176     0.007504
PD8558   PD        0.647647    0.324118    0.500588     0.005394
PD8559   PD        0.677059    0.294706    0.500588     0.005394
AU8560   AU        0.677059    0.324118    0.471176     0.007504
AU8561   AU        0.706471    0.294706    0.471176     0.007504
PD8562   PD        0.706471    0.324118    0.500588     0.005394
PD8563   PD        0.735882    0.294706    0.500588     0.005394
AU8564   AU        0.735882    0.324118    0.471176     0.007504
AU8565   AU        0.765294    0.294706    0.471176     0.007504
PD8566   PD        0.765294    0.324118    0.500588     0.005394
AU8568   AU        0.794706    0.324118    0.471176     0.007504
PD8587   PD        0.147647    0.353529    0.500588     0.005394
PD8588   PD        0.147647    0.382941    0.471176     0.005394
AU8589   AU        0.177059    0.353529    0.471176     0.007504
PD8590   PD        0.177059    0.382941    0.500588     0.005394
AU8591   AU        0.206471    0.353529    0.500588     0.007504
PD8592   PD        0.206471    0.382941    0.471176     0.005394
PD8593   PD        0.235882    0.353529    0.471176     0.005394
AU8594   AU        0.235882    0.382941    0.500588     0.007504
PD8595   PD        0.265294    0.353529    0.500588     0.005394
PD8596   PD        0.265294    0.382941    0.471176     0.005394
PD8597   PD        0.294706    0.353529    0.471176     0.005394
PD8598   PD        0.294706    0.382941    0.500588     0.005394
AU8599   AU        0.324118    0.353529    0.500588     0.007504
AU8600   AU        0.324118    0.382941    0.471176     0.007504
AU8601   AU        0.353529    0.353529    0.471176     0.007504
AU8602   AU        0.353529    0.382941    0.500588     0.007504
AU8603   AU        0.382941    0.353529    0.500588     0.007504
AU8604   AU        0.382941    0.382941    0.471176     0.007504
PD8605   PD        0.412353    0.353529    0.471176     0.005394
AU8606   AU        0.412353    0.382941    0.500588     0.007504
AU8607   AU        0.441765    0.353529    0.500588     0.007504
PD8608   PD        0.441765    0.382941    0.471176     0.005394
PD8609   PD        0.471176    0.353529    0.471176     0.005394
PD8610   PD        0.471176    0.382941    0.500588     0.005394
AU8611   AU        0.500588    0.353529    0.500588     0.007504
PD8612   PD        0.500588    0.382941    0.471176     0.005394
AU8613   AU        0.530000    0.353529    0.471176     0.007504
AU8614   AU        0.530000    0.382941    0.500588     0.007504
AU8615   AU        0.559412    0.353529    0.500588     0.007504
AU8616   AU        0.559412    0.382941    0.471176     0.007504
PD8617   PD        0.588824    0.353529    0.471176     0.005394
PD8618   PD        0.588824    0.382941    0.500588     0.005394
PD8619   PD        0.618235    0.353529    0.500588     0.005394
PD8620   PD        0.618235    0.382941    0.471176     0.005394
PD8621   PD        0.647647    0.353529    0.471176     0.005394
AU8622   AU        0.647647    0.382941    0.500588     0.007504
PD8623   PD        0.677059    0.353529    0.500588     0.005394
PD8624   PD        0.677059    0.382941    0.471176     0.005394
PD8625   PD        0.706471    0.353529    0.471176     0.005394
PD8626   PD        0.706471    0.382941    0.500588     0.005394
PD8627   PD        0.735882    0.353529    0.500588     0.005394
AU8628   AU        0.735882    0.382941    0.471176     0.007504
AU8629   AU        0.765294    0.353529    0.471176     0.007504
AU8630   AU        0.765294    0.382941    0.500588     0.007504
PD8631   PD        0.794706    0.353529    0.500588     0.005394
PD8632   PD        0.794706    0.382941    0.471176     0.005394
PD8649   PD        0.118235    0.412353    0.471176     0.005394
PD8650   PD        0.118235    0.441765    0.500588     0.005394
AU8651   AU        0.147647    0.412353    0.500588     0.007504
AU8652   AU        0.147647    0.441765    0.471176     0.007504
PD8653   PD        0.177059    0.412353    0.471176     0.005394
AU8654   AU        0.177059    0.441765    0.500588     0.007504
PD8655   PD        0.206471    0.412353    0.500588     0.005394
AU8656   AU        0.206471    0.441765    0.471176     0.007504
AU8657   AU        0.235882    0.412353    0.471176     0.007504
AU8658   AU        0.235882    0.441765    0.500588     0.007504
AU8659   AU        0.265294    0.412353    0.500588     0.007504
AU8660   AU        0.265294    0.441765    0.471176     0.007504
AU8661   AU        0.294706    0.412353    0.471176     0.007504
PD8662   PD        0.294706    0.441765    0.500588     0.005394
AU8663   AU        0.324118    0.412353    0.500588     0.007504
PD8664   PD        0.324118    0.441765    0.471176     0.005394
PD8665   PD        0.353529    0.412353    0.471176     0.005394
AU8666   AU        0.353529    0.441765    0.500588     0.007504
PD8667   PD        0.382941    0.412353    0.500588     0.005394
AU8668   AU        0.382941    0.441765    0.471176     0.007504
AU8669   AU        0.412353    0.412353    0.471176     0.007504
AU8670   AU        0.412353    0.441765    0.500588     0.007504
AU8671   AU        0.441765    0.412353    0.500588     0.007504
PD8672   PD        0.441765    0.441765    0.471176     0.005394
AU8673   AU        0.471176    0.412353    0.471176     0.007504
AU8674   AU        0.471176    0.441765    0.500588     0.007504
AU8675   AU        0.500588    0.412353    0.500588     0.007504
PD8676   PD        0.500588    0.441765    0.471176     0.005394
AU8677   AU        0.530000    0.412353    0.471176     0.007504
PD8678   PD        0.530000    0.441765    0.500588     0.005394
PD8679   PD        0.559412    0.412353    0.500588     0.005394
PD8680   PD        0.559412    0.441765    0.471176     0.005394
AU8681   AU        0.588824    0.412353    0.471176     0.007504
PD8682   PD        0.588824    0.441765    0.500588     0.005394
AU8683   AU        0.618235    0.412353    0.500588     0.007504
PD8684   PD        0.618235    0.441765    0.471176     0.005394
PD8685   PD        0.647647    0.412353    0.471176     0.005394
PD8686   PD        0.647647    0.441765    0.500588     0.005394
PD8687   PD        0.677059    0.412353    0.500588     0.005394
AU8688   AU        0.677059    0.441765    0.471176     0.007504
PD8689   PD        0.706471    0.412353    0.471176     0.005394
PD8690   PD        0.706471    0.441765    0.500588     0.005394
AU8691   AU        0.735882    0.412353    0.500588     0.007504
PD8692   PD        0.735882    0.441765    0.471176     0.005394
PD8693   PD        0.765294    0.412353    0.471176     0.005394
PD8694   PD        0.765294    0.441765    0.500588     0.005394
AU8695   AU        0.794706    0.412353    0.500588     0.007504
AU8696   AU        0.794706    0.441765    0.471176     0.007504
AU8697   AU        0.824118    0.412353    0.471176     0.007504
AU8698   AU        0.824118    0.441765    0.500588     0.007504
AU8713   AU        0.118235    0.471176    0.471176     0.007504
PD8714   PD        0.118235    0.500588    0.500588     0.005394
AU8715   AU        0.147647    0.471176    0.500588     0.007504
AU8716   AU        0.147647    0.500588    0.471176     0.007504
PD8717   PD        0.177059    0.471176    0.471176     0.005394
AU8718   AU        0.177059    0.500588    0.500588     0.007504
PD8719   PD        0.206471    0.471176    0.500588     0.005394
AU8720   AU        0.206471    0.500588    0.471176     0.007504
PD8721   PD        0.235882    0.471176    0.471176     0.005394
PD8722   PD        0.235882    0.500588    0.500588     0.005394
PD8723   PD        0.265294    0.471176    0.500588     0.005394
PD8724   PD        0.265294    0.500588    0.471176     0.005394
AU8725   AU        0.294706    0.471176    0.471176     0.007504
PD8726   PD        0.294706    0.500588    0.500588     0.005394
PD8727   PD        0.324118    0.471176    0.500588     0.005394
AU8728   AU        0.324118    0.500588    0.471176     0.007504
AU8729   AU        0.353529    0.471176    0.471176     0.007504
PD8730   PD        0.353529    0.500588    0.500588     0.005394
AU8731   AU        0.382941    0.471176    0.500588     0.007504
AU8732   AU        0.382941    0.500588    0.471176     0.007504
AU8733   AU        0.412353    0.471176    0.471176     0.007504
AU8734   AU        0.412353    0.500588    0.500588     0.007504
AU8735   AU        0.441765    0.471176    0.500588     0.007504
PD8736   PD        0.441765    0.500588    0.471176     0.005394
AU8737   AU        0.471176    0.471176    0.471176     0.007504
PD8738   PD        0.471176    0.500588    0.500588     0.005394
PD8739   PD        0.500588    0.471176    0.500588     0.005394
AU8740   AU        0.500588    0.500588    0.471176     0.007504
PD8741   PD        0.530000    0.471176    0.471176     0.005394
AU8742   AU        0.530000    0.500588    0.500588     0.007504
AU8743   AU        0.559412    0.471176    0.500588     0.007504
AU8744   AU        0.559412    0.500588    0.471176     0.007504
AU8745   AU        0.588824    0.471176    0.471176     0.007504
PD8746   PD        0.588824    0.500588    0.500588     0.005394
PD8747   PD        0.618235    0.471176    0.500588     0.005394
AU8748   AU        0.618235    0.500588    0.471176     0.007504
AU8749   AU        0.647647    0.471176    0.471176     0.007504
PD8750   PD        0.647647    0.500588    0.500588     0.005394
AU8751   AU        0.677059    0.471176    0.500588     0.007504
AU8752   AU        0.677059    0.500588    0.471176     0.007504
PD8753   PD        0.706471    0.471176    0.471176     0.005394
PD8754   PD        0.706471    0.500588    0.500588     0.005394
AU8755   AU        0.735882    0.471176    0.500588     0.007504
PD8756   PD        0.735882    0.500588    0.471176     0.005394
AU8757   AU        0.765294    0.471176    0.471176     0.007504
AU8758   AU        0.765294    0.500588    0.500588     0.007504
PD8759   PD        0.794706    0.471176    0.500588     0.005394
PD8760   PD        0.794706    0.500588    0.471176     0.005394
PD8761   PD        0.824118    0.471176    0.471176     0.005394
AU8762   AU        0.824118    0.500588    0.500588     0.007504
AU8777   AU        0.118235    0.530000    0.471176     0.007504
AU8779   AU        0.147647    0.530000    0.500588     0.007504
PD8780   PD        0.147647    0.559412    0.471176     0.005394
PD8781   PD        0.177059    0.530000    0.471176     0.005394
AU8782   AU        0.177059    0.559412    0.500588     0.007504
PD8783   PD        0.206471    0.530000    0.500588     0.005394
AU8784   AU        0.206471    0.559412    0.471176     0.007504
AU8785   AU        0.235882    0.530000    0.471176     0.007504
PD8786   PD        0.235882    0.559412    0.500588     0.005394
PD8787   PD        0.265294    0.530000    0.500588     0.005394
AU8788   AU        0.265294    0.559412    0.471176     0.007504
AU8789   AU        0.294706    0.530000    0.471176     0.007504
AU8790   AU        0.294706    0.559412    0.500588     0.007504
PD8791   PD        0.324118    0.530000    0.500588     0.005394
AU8792   AU        0.324118    0.559412    0.471176     0.007504
PD8793   PD        0.353529    0.530000    0.471176     0.005394
PD8794   PD        0.353529    0.559412    0.500588     0.005394
PD8795   PD        0.382941    0.530000    0.500588     0.005394
AU8796   AU        0.382941    0.559412    0.471176     0.007504
PD8797   PD        0.412353    0.530000    0.471176     0.005394
AU8798   AU        0.412353    0.559412    0.500588     0.007504
PD8799   PD        0.441765    0.530000    0.500588     0.005394
AU8800   AU        0.441765    0.559412    0.471176     0.007504
PD8801   PD        0.471176    0.530000    0.471176     0.005394
PD8802   PD        0.471176    0.559412    0.500588     0.005394
AU8803   AU        0.500588    0.530000    0.500588     0.007504
AU8804   AU        0.500588    0.559412    0.471176     0.007504
AU8805   AU        0.530000    0.530000    0.471176     0.007504
AU8806   AU        0.530000    0.559412    0.500588     0.007504
PD8807   PD        0.559412    0.530000    0.500588     0.005394
AU8808   AU        0.559412    0.559412    0.471176     0.007504
PD8809   PD        0.588824    0.530000    0.471176     0.005394
AU8810   AU        0.588824    0.559412    0.500588     0.007504
AU8811   AU        0.618235    0.530000    0.500588     0.007504
PD8812   PD        0.618235    0.559412    0.471176     0.005394
PD8813   PD        0.647647    0.530000    0.471176     0.005394
AU8814   AU        0.647647    0.559412    0.500588     0.007504
AU8815   AU        0.677059    0.530000    0.500588     0.007504
AU8816   AU        0.677059    0.559412    0.471176     0.007504
AU8817   AU        0.706471    0.530000    0.471176     0.007504
AU8818   AU        0.706471    0.559412    0.500588     0.007504
AU8819   AU        0.735882    0.530000    0.500588     0.007504
PD8820   PD        0.735882    0.559412    0.471176     0.005394
PD8821   PD        0.765294    0.530000    0.471176     0.005394
AU8822   AU        0.765294    0.559412    0.500588     0.007504
AU8823   AU        0.794706    0.530000    0.500588     0.007504
PD8824   PD        0.794706    0.559412    0.471176     0.005394
PD8825   PD        0.824118    0.530000    0.471176     0.005394
PD8843   PD        0.147647    0.588824    0.500588     0.005394
AU8844   AU        0.147647    0.618235    0.471176     0.007504
PD8845   PD        0.177059    0.588824    0.471176     0.005394
PD8846   PD        0.177059    0.618235    0.500588     0.005394
AU8847   AU        0.206471    0.588824    0.500588     0.007504
AU8848   AU        0.206471    0.618235    0.471176     0.007504
PD8849   PD        0.235882    0.588824    0.471176     0.005394
AU8850   AU        0.235882    0.618235    0.500588     0.007504
PD8851   PD        0.265294    0.588824    0.500588     0.005394
AU8852   AU        0.265294    0.618235    0.471176     0.007504
AU8853   AU        0.294706    0.588824    0.471176     0.007504
AU8854   AU        0.294706    0.618235    0.500588     0.007504
PD8855   PD        0.324118    0.588824    0.500588     0.005394
PD8856   PD        0.324118    0.618235    0.471176     0.005394
PD8857   PD        0.353529    0.588824    0.471176     0.005394
PD8858   PD        0.353529    0.618235    0.500588     0.005394
AU8859   AU        0.382941    0.588824    0.500588     0.007504
PD8860   PD        0.382941    0.618235    0.471176     0.005394
PD8861   PD        0.412353    0.588824    0.471176     0.005394
AU8862   AU        0.412353    0.618235    0.500588     0.007504
AU8863   AU        0.441765    0.588824    0.500588     0.007504
AU8864   AU        0.441765    0.618235    0.471176     0.007504
AU8865   AU        0.471176    0.588824    0.471176     0.007504
AU8866   AU        0.471176    0.618235    0.500588     0.007504
AU8867   AU        0.500588    0.588824    0.500588     0.007504
AU8868   AU        0.500588    0.618235    0.471176     0.007504
AU8869   AU        0.530000    0.588824    0.471176     0.007504
AU8870   AU        0.530000    0.618235    0.500588     0.007504
PD8871   PD        0.559412    0.588824    0.500588     0.005394
AU8872   AU        0.559412    0.618235    0.471176     0.007504
PD8873   PD        0.588824    0.588824    0.471176     0.005394
PD8874   PD        0.588824    0.618235    0.500588     0.005394
AU8875   AU        0.618235    0.588824    0.500588     0.007504
PD8876   PD        0.618235    0.618235    0.471176     0.005394
AU8877   AU        0.647647    0.588824    0.471176     0.007504
AU8878   AU        0.647647    0.618235    0.500588     0.007504
PD8879   PD        0.677059    0.588824    0.500588     0.005394
PD8880   PD        0.677059    0.618235    0.471176     0.005394
AU8881   AU        0.706471    0.588824    0.471176     0.007504
PD8882   PD        0.706471    0.618235    0.500588     0.005394
PD8883   PD        0.735882    0.588824    0.500588     0.005394
PD8884   PD        0.735882    0.618235    0.471176     0.005394
PD8885   PD        0.765294    0.588824    0.471176     0.005394
AU8886   AU        0.765294    0.618235    0.500588     0.007504
PD8887   PD        0.794706    0.588824    0.500588     0.005394
PD8888   PD        0.794706    0.618235    0.471176     0.005394
AU8909   AU        0.177059    0.647647    0.471176     0.007504
PD8910   PD        0.177059    0.677059    0.500588     0.005394
PD8911   PD        0.206471    0.647647    0.500588     0.005394
AU8912   AU        0.206471    0.677059    0.471176     0.007504
AU8913   AU        0.235882    0.647647    0.471176     0.007504
AU8914   AU        0.235882    0.677059    0.500588     0.007504
AU8915   AU        0.265294    0.647647    0.500588     0.007504
AU8916   AU        0.265294    0.677059    0.471176     0.007504
PD8917   PD        0.294706    0.647647    0.471176     0.005394
PD8918   PD        0.294706    0.677059    0.500588     0.005394
AU8919   AU        0.324118    0.647647    0.500588     0.007504
AU8920   AU        0.324118    0.677059    0.471176     0.007504
AU8921   AU        0.353529    0.647647    0.471176     0.007504
PD8922   PD        0.353529    0.677059    0.500588     0.005394
PD8923   PD        0.382941    0.647647    0.500588     0.005394
PD8924   PD        0.382941    0.677059    0.471176     0.005394
PD8925   PD        0.412353    0.647647    0.471176     0.005394
AU8926   AU        0.412353    0.677059    0.500588     0.007504
PD8927   PD        0.441765    0.647647    0.500588     0.005394
PD8928   PD        0.441765    0.677059    0.471176     0.005394
PD8929   PD        0.471176    0.647647    0.471176     0.005394
PD8930   PD        0.471176    0.677059    0.500588     0.005394
AU8931   AU        0.500588    0.647647    0.500588     0.007504
AU8932   AU        0.500588    0.677059    0.471176     0.007504
PD8933   PD        0.530000    0.647647    0.471176     0.005394
PD8934   PD        0.530000    0.677059    0.500588     0.005394
AU8935   AU        0.559412    0.647647    0.500588     0.007504
PD8936   PD        0.559412    0.677059    0.471176     0.005394
PD8937   PD        0.588824    0.647647    0.471176     0.005394
PD8938   PD        0.588824    0.677059    0.500588     0.005394
AU8939   AU        0.618235    0.647647    0.500588     0.007504
PD8940   PD        0.618235    0.677059    0.471176     0.005394
AU8941   AU        0.647647    0.647647    0.471176     0.007504
PD8942   PD        0.647647    0.677059    0.500588     0.005394
AU8943   AU        0.677059    0.647647    0.500588     0.007504
PD8944   PD        0.677059    0.677059    0.471176     0.005394
AU8945   AU        0.706471    0.647647    0.471176     0.007504
PD8946   PD        0.706471    0.677059    0.500588     0.005394
PD8947   PD        0.735882    0.647647    0.500588     0.005394
PD8948   PD        0.735882    0.677059    0.471176     0.005394
PD8949   PD        0.765294    0.647647    0.471176     0.005394
PD8950   PD        0.765294    0.677059    0.500588     0.005394
PD8975   PD        0.206471    0.706471    0.500588     0.005394
AU8977   AU        0.235882    0.706471    0.471176     0.007504
PD8978   PD        0.235882    0.735882    0.500588     0.005394
AU8979   AU        0.265294    0.706471    0.500588     0.007504
AU8980   AU        0.265294    0.735882    0.471176     0.007504
AU8981   AU        0.294706    0.706471    0.471176     0.007504
AU8982   AU        0.294706    0.735882    0.500588     0.007504
PD8983   PD        0.324118    0.706471    0.500588     0.005394
PD8984   PD        0.324118    0.735882    0.471176     0.005394
PD8985   PD        0.353529    0.706471    0.471176     0.005394
AU8986   AU        0.353529    0.735882    0.500588     0.007504
AU8987   AU        0.382941    0.706471    0.500588     0.007504
PD8988   PD        0.382941    0.735882    0.471176     0.005394
AU8989   AU        0.412353    0.706471    0.471176     0.007504
AU8990   AU        0.412353    0.735882    0.500588     0.007504
AU8991   AU        0.441765    0.706471    0.500588     0.007504
PD8992   PD        0.441765    0.735882    0.471176     0.005394
PD8993   PD        0.471176    0.706471    0.471176     0.005394
AU8994   AU        0.471176    0.735882    0.500588     0.007504
AU8995   AU        0.500588    0.706471    0.500588     0.007504
PD8996   PD        0.500588    0.735882    0.471176     0.005394
PD8997   PD        0.530000    0.706471    0.471176     0.005394
AU8998   AU        0.530000    0.735882    0.500588     0.007504
PD8999   PD        0.559412    0.706471    0.500588     0.005394
AU9000   AU        0.559412    0.735882    0.471176     0.007504
PD9001   PD        0.588824    0.706471    0.471176     0.005394
PD9002   PD        0.588824    0.735882    0.500588     0.005394
PD9003   PD        0.618235    0.706471    0.500588     0.005394
AU9004   AU        0.618235    0.735882    0.471176     0.007504
AU9005   AU        0.647647    0.706471    0.471176     0.007504
AU9006   AU        0.647647    0.735882    0.500588     0.007504
AU9007   AU        0.677059    0.706471    0.500588     0.007504
AU9008   AU        0.677059    0.735882    0.471176     0.007504
PD9009   PD        0.706471    0.706471    0.471176     0.005394
AU9010   AU        0.706471    0.735882    0.500588     0.007504
AU9011   AU        0.735882    0.706471    0.500588     0.007504
PD9043   PD        0.265294    0.765294    0.500588     0.005394
PD9045   PD        0.294706    0.765294    0.471176     0.005394
PD9047   PD        0.324118    0.765294    0.500588     0.005394
PD9048   PD        0.324118    0.794706    0.471176     0.005394
PD9049   PD        0.353529    0.765294    0.471176     0.005394
PD9050   PD        0.353529    0.794706    0.500588     0.005394
AU9051   AU        0.382941    0.765294    0.500588     0.007504
PD9052   PD        0.382941    0.794706    0.471176     0.005394
PD9053   PD        0.412353    0.765294    0.471176     0.005394
PD9054   PD        0.412353    0.794706    0.500588     0.005394
PD9055   PD        0.441765    0.765294    0.500588     0.005394
PD9056   PD        0.441765    0.794706    0.471176     0.005394
PD9057   PD        0.471176    0.765294    0.471176     0.005394
PD9058   PD        0.471176    0.794706    0.500588     0.005394
PD9059   PD        0.500588    0.765294    0.500588     0.005394
AU9060   AU        0.500588    0.794706    0.471176     0.007504
PD9061   PD        0.530000    0.765294    0.471176     0.005394
PD9062   PD        0.530000    0.794706    0.500588     0.005394
PD9063   PD        0.559412    0.765294    0.500588     0.005394
AU9064   AU        0.559412    0.794706    0.471176     0.007504
AU9065   AU        0.588824    0.765294    0.471176     0.007504
AU9066   AU        0.588824    0.794706    0.500588     0.007504
PD9067   PD        0.618235    0.765294    0.500588     0.005394
PD9068   PD        0.618235    0.794706    0.471176     0.005394
PD9069   PD        0.647647    0.765294    0.471176     0.005394
PD9071   PD        0.677059    0.765294    0.500588     0.005394
PD9117   PD        0.412353    0.824118    0.471176     0.005394
PD9119   PD        0.441765    0.824118    0.500588     0.005394
AU9121   AU        0.471176    0.824118    0.471176     0.007504
AU9123   AU        0.500588    0.824118    0.500588     0.007504
PD9125   PD        0.530000    0.824118    0.471176     0.005394
AU9368   AU        0.324118    0.147647    0.530000     0.007504
AU9370   AU        0.353529    0.147647    0.559412     0.007504
AU9372   AU        0.382941    0.147647    0.530000     0.007504
PD9374   PD        0.412353    0.147647    0.559412     0.005394
PD9376   PD        0.441765    0.147647    0.530000     0.005394
PD9377   PD        0.471176    0.118235    0.530000     0.005394
AU9378   AU        0.471176    0.147647    0.559412     0.007504
AU9380   AU        0.500588    0.147647    0.530000     0.007504
PD9382   PD        0.530000    0.147647    0.559412     0.005394
AU9384   AU        0.559412    0.147647    0.530000     0.007504
AU9386   AU        0.588824    0.147647    0.559412     0.007504
PD9388   PD        0.618235    0.147647    0.530000     0.005394
AU9428   AU        0.265294    0.206471    0.530000     0.007504
AU9429   AU        0.294706    0.177059    0.530000     0.007504
PD9430   PD        0.294706    0.206471    0.559412     0.005394
AU9431   AU        0.324118    0.177059    0.559412     0.007504
AU9432   AU        0.324118    0.206471    0.530000     0.007504
AU9433   AU        0.353529    0.177059    0.530000     0.007504
PD9434   PD        0.353529    0.206471    0.559412     0.005394
PD9435   PD        0.382941    0.177059    0.559412     0.005394
PD9436   PD        0.382941    0.206471    0.530000     0.005394
PD9437   PD        0.412353    0.177059    0.530000     0.005394
PD9438   PD        0.412353    0.206471    0.559412     0.005394
PD9439   PD        0.441765    0.177059    0.559412     0.005394
AU9440   AU        0.441765    0.206471    0.530000     0.007504
AU9441   AU        0.471176    0.177059    0.530000     0.007504
AU9442   AU        0.471176    0.206471    0.559412     0.007504
PD9443   PD        0.500588    0.177059    0.559412     0.005394
PD9444   PD        0.500588    0.206471    0.530000     0.005394
AU9445   AU        0.530000    0.177059    0.530000     0.007504
PD9446   PD        0.530000    0.206471    0.559412     0.005394
PD9447   PD        0.559412    0.177059    0.559412     0.005394
AU9448   AU        0.559412    0.206471    0.530000     0.007504
AU9449   AU        0.588824    0.177059    0.530000     0.007504
AU9450   AU        0.588824    0.206471    0.559412     0.007504
PD9451   PD        0.618235    0.177059    0.559412     0.005394
AU9452   AU        0.618235    0.206471    0.530000     0.007504
PD9453   PD        0.647647    0.177059    0.530000     0.005394
PD9454   PD        0.647647    0.206471    0.559412     0.005394
AU9456   AU        0.677059    0.206471    0.530000     0.007504
AU9488   AU        0.206471    0.265294    0.530000     0.007504
AU9489   AU        0.235882    0.235882    0.530000     0.007504
AU9490   AU        0.235882    0.265294    0.559412     0.007504
AU9491   AU        0.265294    0.235882    0.559412     0.007504
PD9492   PD        0.265294    0.265294    0.530000     0.005394
PD9493   PD        0.294706    0.235882    0.530000     0.005394
PD9494   PD        0.294706    0.265294    0.559412     0.005394
PD9495   PD        0.324118    0.235882    0.559412     0.005394
AU9496   AU        0.324118    0.265294    0.530000     0.007504
PD9497   PD        0.353529    0.235882    0.530000     0.005394
AU9498   AU        0.353529    0.265294    0.559412     0.007504
AU9499   AU        0.382941    0.235882    0.559412     0.007504
AU9500   AU        0.382941    0.265294    0.530000     0.007504
PD9501   PD        0.412353    0.235882    0.530000     0.005394
AU9502   AU        0.412353    0.265294    0.559412     0.007504
AU9503   AU        0.441765    0.235882    0.559412     0.007504
AU9504   AU        0.441765    0.265294    0.530000     0.007504
AU9505   AU        0.471176    0.235882    0.530000     0.007504
PD9506   PD        0.471176    0.265294    0.559412     0.005394
PD9507   PD        0.500588    0.235882    0.559412     0.005394
PD9508   PD        0.500588    0.265294    0.530000     0.005394
PD9509   PD        0.530000    0.235882    0.530000     0.005394
PD9510   PD        0.530000    0.265294    0.559412     0.005394
PD9511   PD        0.559412    0.235882    0.559412     0.005394
AU9512   AU        0.559412    0.265294    0.530000     0.007504
PD9513   PD        0.588824    0.235882    0.530000     0.005394
PD9514   PD        0.588824    0.265294    0.559412     0.005394
PD9515   PD        0.618235    0.235882    0.559412     0.005394
PD9516   PD        0.618235    0.265294    0.530000     0.005394
PD9517   PD        0.647647    0.235882    0.530000     0.005394
PD9518   PD        0.647647    0.265294    0.559412     0.005394
PD9519   PD        0.677059    0.235882    0.559412     0.005394
PD9520   PD        0.677059    0.265294    0.530000     0.005394
AU9521   AU        0.706471    0.235882    0.530000     0.007504
PD9522   PD        0.706471    0.265294    0.559412     0.005394
AU9524   AU        0.735882    0.265294    0.530000     0.007504
AU9548   AU        0.147647    0.324118    0.530000     0.007504
PD9549   PD        0.177059    0.294706    0.530000     0.005394
AU9550   AU        0.177059    0.324118    0.559412     0.007504
AU9551   AU        0.206471    0.294706    0.559412     0.007504
AU9552   AU        0.206471    0.324118    0.530000     0.007504
PD9553   PD        0.235882    0.294706    0.530000     0.005394
PD9554   PD        0.235882    0.324118    0.559412     0.005394
AU9555   AU        0.265294    0.294706    0.559412     0.007504
AU9556   AU        0.265294    0.324118    0.530000     0.007504
PD9557   PD        0.294706    0.294706    0.530000     0.005394
AU9558   AU        0.294706    0.324118    0.559412     0.007504
PD9559   PD        0.324118    0.294706    0.559412     0.005394
PD9560   PD        0.324118    0.324118    0.530000     0.005394
PD9561   PD        0.353529    0.294706    0.530000     0.005394
PD9562   PD        0.353529    0.324118    0.559412     0.005394
AU9563   AU        0.382941    0.294706    0.559412     0.007504
AU9564   AU        0.382941    0.324118    0.530000     0.007504
AU9565   AU        0.412353    0.294706    0.530000     0.007504
PD9566   PD        0.412353    0.324118    0.559412     0.005394
PD9567   PD        0.441765    0.294706    0.559412     0.005394
PD9568   PD        0.441765    0.324118    0.530000     0.005394
AU9569   AU        0.471176    0.294706    0.530000     0.007504
AU9570   AU        0.471176    0.324118    0.559412     0.007504
PD9571   PD        0.500588    0.294706    0.559412     0.005394
AU9572   AU        0.500588    0.324118    0.530000     0.007504
AU9573   AU        0.530000    0.294706    0.530000     0.007504
AU9574   AU        0.530000    0.324118    0.559412     0.007504
AU9575   AU        0.559412    0.294706    0.559412     0.007504
AU9576   AU        0.559412    0.324118    0.530000     0.007504
PD9577   PD        0.588824    0.294706    0.530000     0.005394
AU9578   AU        0.588824    0.324118    0.559412     0.007504
PD9579   PD        0.618235    0.294706    0.559412     0.005394
AU9580   AU        0.618235    0.324118    0.530000     0.007504
AU9581   AU        0.647647    0.294706    0.530000     0.007504
PD9582   PD        0.647647    0.324118    0.559412     0.005394
AU9583   AU        0.677059    0.294706    0.559412     0.007504
AU9584   AU        0.677059    0.324118    0.530000     0.007504
PD9585   PD        0.706471    0.294706    0.530000     0.005394
PD9586   PD        0.706471    0.324118    0.559412     0.005394
AU9587   AU        0.735882    0.294706    0.559412     0.007504
AU9588   AU        0.735882    0.324118    0.530000     0.007504
AU9589   AU        0.765294    0.294706    0.530000     0.007504
AU9590   AU        0.765294    0.324118    0.559412     0.007504
AU9592   AU        0.794706    0.324118    0.530000     0.007504
AU9611   AU        0.147647    0.353529    0.559412     0.007504
PD9612   PD        0.147647    0.382941    0.530000     0.005394
PD9613   PD        0.177059    0.353529    0.530000     0.005394
PD9614   PD        0.177059    0.382941    0.559412     0.005394
AU9615   AU        0.206471    0.353529    0.559412     0.007504
PD9616   PD        0.206471    0.382941    0.530000     0.005394
PD9617   PD        0.235882    0.353529    0.530000     0.005394
PD9618   PD        0.235882    0.382941    0.559412     0.005394
AU9619   AU        0.265294    0.353529    0.559412     0.007504
PD9620   PD        0.265294    0.382941    0.530000     0.005394
PD9621   PD        0.294706    0.353529    0.530000     0.005394
AU9622   AU        0.294706    0.382941    0.559412     0.007504
PD9623   PD        0.324118    0.353529    0.559412     0.005394
PD9624   PD        0.324118    0.382941    0.530000     0.005394
AU9625   AU        0.353529    0.353529    0.530000     0.007504
AU9626   AU        0.353529    0.382941    0.559412     0.007504
PD9627   PD        0.382941    0.353529    0.559412     0.005394
AU9628   AU        0.382941    0.382941    0.530000     0.007504
PD9629   PD        0.412353    0.353529    0.530000     0.005394
AU9630   AU        0.412353    0.382941    0.559412     0.007504
PD9631   PD        0.441765    0.353529    0.559412     0.005394
AU9632   AU        0.441765    0.382941    0.530000     0.007504
AU9633   AU        0.471176    0.353529    0.530000     0.007504
PD9634   PD        0.471176    0.382941    0.559412     0.005394
AU9635   AU        0.500588    0.353529    0.559412     0.007504
AU9636   AU        0.500588    0.382941    0.530000     0.007504
PD9637   PD        0.530000    0.353529    0.530000     0.005394
PD9638   PD        0.530000    0.382941    0.559412     0.005394
AU9639   AU        0.559412    0.353529    0.559412     0.007504
AU9640   AU        0.559412    0.382941    0.530000     0.007504
AU9641   AU        0.588824    0.353529    0.530000     0.007504
AU9642   AU        0.588824    0.382941    0.559412     0.007504
PD9643   PD        0.618235    0.353529    0.559412     0.005394
AU9644   AU        0.618235    0.382941    0.530000     0.007504
PD9645   PD        0.647647    0.353529    0.530000     0.005394
PD9646   PD        0.647647    0.382941    0.559412     0.005394
AU9647   AU        0.677059    0.353529    0.559412     0.007504
AU9648   AU        0.677059    0.382941    0.530000     0.007504
AU9649   AU        0.706471    0.353529    0.530000     0.007504
PD9650   PD        0.706471    0.382941    0.559412     0.005394
AU9651   AU        0.735882    0.353529    0.559412     0.007504
AU9652   AU        0.735882    0.382941    0.530000     0.007504
AU9653   AU        0.765294    0.353529    0.530000     0.007504
AU9654   AU        0.765294    0.382941    0.559412     0.007504
AU9655   AU        0.794706    0.353529    0.559412     0.007504
AU9656   AU        0.794706    0.382941    0.530000     0.007504
AU9675   AU        0.147647    0.412353    0.559412     0.007504
AU9676   AU        0.147647    0.441765    0.530000     0.007504
PD9677   PD        0.177059    0.412353    0.530000     0.005394
PD9678   PD        0.177059    0.441765    0.559412     0.005394
PD9679   PD        0.206471    0.412353    0.559412     0.005394
PD9680   PD        0.206471    0.441765    0.530000     0.005394
PD9681   PD        0.235882    0.412353    0.530000     0.005394
PD9682   PD        0.235882    0.441765    0.559412     0.005394
PD9683   PD        0.265294    0.412353    0.559412     0.005394
PD9684   PD        0.265294    0.441765    0.530000     0.005394
AU9685   AU        0.294706    0.412353    0.530000     0.007504
AU9686   AU        0.294706    0.441765    0.559412     0.007504
AU9687   AU        0.324118    0.412353    0.559412     0.007504
PD9688   PD        0.324118    0.441765    0.530000     0.005394
AU9689   AU        0.353529    0.412353    0.530000     0.007504
PD9690   PD        0.353529    0.441765    0.559412     0.005394
PD9691   PD        0.382941    0.412353    0.559412     0.005394
PD9692   PD        0.382941    0.441765    0.530000     0.005394
AU9693   AU        0.412353    0.412353    0.530000     0.007504
PD9694   PD        0.412353    0.441765    0.559412     0.005394
AU9695   AU        0.441765    0.412353    0.559412     0.007504
PD9696   PD        0.441765    0.441765    0.530000     0.005394
AU9697   AU        0.471176    0.412353    0.530000     0.007504
AU9698   AU        0.471176    0.441765    0.559412     0.007504
AU9699   AU        0.500588    0.412353    0.559412     0.007504
AU9700   AU        0.500588    0.441765    0.530000     0.007504
AU9701   AU        0.530000    0.412353    0.530000     0.007504
AU9702   AU        0.530000    0.441765    0.559412     0.007504
PD9703   PD        0.559412    0.412353    0.559412     0.005394
AU9704   AU        0.559412    0.441765    0.530000     0.007504
PD9705   PD        0.588824    0.412353    0.530000     0.005394
AU9706   AU        0.588824    0.441765    0.559412     0.007504
PD9707   PD        0.618235    0.412353    0.559412     0.005394
AU9708   AU        0.618235    0.441765    0.530000     0.007504
AU9709   AU        0.647647    0.412353    0.530000     0.007504
AU9710   AU        0.647647    0.441765    0.559412     0.007504
PD9711   PD        0.677059    0.412353    0.559412     0.005394
PD9712   PD        0.677059    0.441765    0.530000     0.005394
PD9713   PD        0.706471    0.412353    0.530000     0.005394
PD9714   PD        0.706471    0.441765    0.559412     0.005394
AU9715   AU        0.735882    0.412353    0.559412     0.007504
AU9716   AU        0.735882    0.441765    0.530000     0.007504
PD9717   PD        0.765294    0.412353    0.530000     0.005394
AU9718   AU        0.765294    0.441765    0.559412     0.007504
PD9719   PD        0.794706    0.412353    0.559412     0.005394
PD9720   PD        0.794706    0.441765    0.530000     0.005394
PD9737   PD        0.118235    0.471176    0.530000     0.005394
AU9739   AU        0.147647    0.471176    0.559412     0.007504
PD9740   PD        0.147647    0.500588    0.530000     0.005394
AU9741   AU        0.177059    0.471176    0.530000     0.007504
AU9742   AU        0.177059    0.500588    0.559412     0.007504
PD9743   PD        0.206471    0.471176    0.559412     0.005394
PD9744   PD        0.206471    0.500588    0.530000     0.005394
AU9745   AU        0.235882    0.471176    0.530000     0.007504
AU9746   AU        0.235882    0.500588    0.559412     0.007504
PD9747   PD        0.265294    0.471176    0.559412     0.005394
AU9748   AU        0.265294    0.500588    0.530000     0.007504
AU9749   AU        0.294706    0.471176    0.530000     0.007504
PD9750   PD        0.294706    0.500588    0.559412     0.005394
AU9751   AU        0.324118    0.471176    0.559412     0.007504
PD9752   PD        0.324118    0.500588    0.530000     0.005394
AU9753   AU        0.353529    0.471176    0.530000     0.007504
PD9754   PD        0.353529    0.500588    0.559412     0.005394
AU9755   AU        0.382941    0.471176    0.559412     0.007504
AU9756   AU        0.382941    0.500588    0.530000     0.007504
AU9757   AU        0.412353    0.471176    0.530000     0.007504
PD9758   PD        0.412353    0.500588    0.559412     0.005394
AU9759   AU        0.441765    0.471176    0.559412     0.007504
AU9760   AU        0.441765    0.500588    0.530000     0.007504
AU9761   AU        0.471176    0.471176    0.530000     0.007504
PD9762   PD        0.471176    0.500588    0.559412     0.005394
AU9763   AU        0.500588    0.471176    0.559412     0.007504
AU9764   AU        0.500588    0.500588    0.530000     0.007504
AU9765   AU        0.530000    0.471176    0.530000     0.007504
PD9766   PD        0.530000    0.500588    0.559412     0.005394
PD9767   PD        0.559412    0.471176    0.559412     0.005394
AU9768   AU        0.559412    0.500588    0.530000     0.007504
PD9769   PD        0.588824    0.471176    0.530000     0.005394
AU9770   AU        0.588824    0.500588    0.559412     0.007504
AU9771   AU        0.618235    0.471176    0.559412     0.007504
AU9772   AU        0.618235    0.500588    0.530000     0.007504
AU9773   AU        0.647647    0.471176    0.530000     0.007504
AU9774   AU        0.647647    0.500588    0.559412     0.007504
AU9775   AU        0.677059    0.471176    0.559412     0.007504
AU9776   AU        0.677059    0.500588    0.530000     0.007504
PD9777   PD        0.706471    0.471176    0.530000     0.005394
AU9778   AU        0.706471    0.500588    0.559412     0.007504
AU9779   AU        0.735882    0.471176    0.559412     0.007504
PD9780   PD        0.735882    0.500588    0.530000     0.005394
AU9781   AU        0.765294    0.471176    0.530000     0.007504
AU9782   AU        0.765294    0.500588    0.559412     0.007504
PD9783   PD        0.794706    0.471176    0.559412     0.005394
PD9784   PD        0.794706    0.500588    0.530000     0.005394
AU9785   AU        0.824118    0.471176    0.530000     0.007504
PD9803   PD        0.147647    0.530000    0.559412     0.005394
AU9804   AU        0.147647    0.559412    0.530000     0.007504
AU9805   AU        0.177059    0.530000    0.530000     0.007504
AU9806   AU        0.177059    0.559412    0.559412     0.007504
AU9807   AU        0.206471    0.530000    0.559412     0.007504
AU9808   AU        0.206471    0.559412    0.530000     0.007504
AU9809   AU        0.235882    0.530000    0.530000     0.007504
PD9810   PD        0.235882    0.559412    0.559412     0.005394
PD9811   PD        0.265294    0.530000    0.559412     0.005394
AU9812   AU        0.265294    0.559412    0.530000     0.007504
PD9813   PD        0.294706    0.530000    0.530000     0.005394
PD9814   PD        0.294706    0.559412    0.559412     0.005394
AU9815   AU        0.324118    0.530000    0.559412     0.007504
AU9816   AU        0.324118    0.559412    0.530000     0.007504
AU9817   AU        0.353529    0.530000    0.530000     0.007504
AU9818   AU        0.353529    0.559412    0.559412     0.007504
PD9819   PD        0.382941    0.530000    0.559412     0.005394
PD9820   PD        0.382941    0.559412    0.530000     0.005394
PD9821   PD        0.412353    0.530000    0.530000     0.005394
AU9822   AU        0.412353    0.559412    0.559412     0.007504
AU9823   AU        0.441765    0.530000    0.559412     0.007504
PD9824   PD        0.441765    0.559412    0.530000     0.005394
AU9825   AU        0.471176    0.530000    0.530000     0.007504
PD9826   PD        0.471176    0.559412    0.559412     0.005394
AU9827   AU        0.500588    0.530000    0.559412     0.007504
AU9828   AU        0.500588    0.559412    0.530000     0.007504
AU9829   AU        0.530000    0.530000    0.530000     0.007504
PD9830   PD        0.530000    0.559412    0.559412     0.005394
PD9831   PD        0.559412    0.530000    0.559412     0.005394
AU9832   AU        0.559412    0.559412    0.530000     0.007504
PD9833   PD        0.588824    0.530000    0.530000     0.005394
AU9834   AU        0.588824    0.559412    0.559412     0.007504
AU9835   AU        0.618235    0.530000    0.559412     0.007504
AU9836   AU        0.618235    0.559412    0.530000     0.007504
PD9837   PD        0.647647    0.530000    0.530000     0.005394
PD9838   PD        0.647647    0.559412    0.559412     0.005394
PD9839   PD        0.677059    0.530000    0.559412     0.005394
AU9840   AU        0.677059    0.559412    0.530000     0.007504
AU9841   AU        0.706471    0.530000    0.530000     0.007504
PD9842   PD        0.706471    0.559412    0.559412     0.005394
AU9843   AU        0.735882    0.530000    0.559412     0.007504
AU9844   AU        0.735882    0.559412    0.530000     0.007504
PD9845   PD        0.765294    0.530000    0.530000     0.005394
PD9846   PD        0.765294    0.559412    0.559412     0.005394
PD9847   PD        0.794706    0.530000    0.559412     0.005394
PD9848   PD        0.794706    0.559412    0.530000     0.005394
PD9867   PD        0.147647    0.588824    0.559412     0.005394
AU9868   AU        0.147647    0.618235    0.530000     0.007504
PD9869   PD        0.177059    0.588824    0.530000     0.005394
PD9870   PD        0.177059    0.618235    0.559412     0.005394
PD9871   PD        0.206471    0.588824    0.559412     0.005394
AU9872   AU        0.206471    0.618235    0.530000     0.007504
PD9873   PD        0.235882    0.588824    0.530000     0.005394
AU9874   AU        0.235882    0.618235    0.559412     0.007504
PD9875   PD        0.265294    0.588824    0.559412     0.005394
AU9876   AU        0.265294    0.618235    0.530000     0.007504
AU9877   AU        0.294706    0.588824    0.530000     0.007504
PD9878   PD        0.294706    0.618235    0.559412     0.005394
AU9879   AU        0.324118    0.588824    0.559412     0.007504
PD9880   PD        0.324118    0.618235    0.530000     0.005394
PD9881   PD        0.353529    0.588824    0.530000     0.005394
AU9882   AU        0.353529    0.618235    0.559412     0.007504
AU9883   AU        0.382941    0.588824    0.559412     0.007504
AU9884   AU        0.382941    0.618235    0.530000     0.007504
PD9885   PD        0.412353    0.588824    0.530000     0.005394
AU9886   AU        0.412353    0.618235    0.559412     0.007504
PD9887   PD        0.441765    0.588824    0.559412     0.005394
AU9888   AU        0.441765    0.618235    0.530000     0.007504
AU9889   AU        0.471176    0.588824    0.530000     0.007504
AU9890   AU        0.471176    0.618235    0.559412     0.007504
PD9891   PD        0.500588    0.588824    0.559412     0.005394
PD9892   PD        0.500588    0.618235    0.530000     0.005394
PD9893   PD        0.530000    0.588824    0.530000     0.005394
AU9894   AU        0.530000    0.618235    0.559412     0.007504
PD9895   PD        0.559412    0.588824    0.559412     0.005394
AU9896   AU        0.559412    0.618235    0.530000     0.007504
PD9897   PD        0.588824    0.588824    0.530000     0.005394
AU9898   AU        0.588824    0.618235    0.559412     0.007504
PD9899   PD        0.618235    0.588824    0.559412     0.005394
AU9900   AU        0.618235    0.618235    0.530000     0.007504
AU9901   AU        0.647647    0.588824    0.530000     0.007504
AU9902   AU        0.647647    0.618235    0.559412     0.007504
AU9903   AU        0.677059    0.588824    0.559412     0.007504
AU9904   AU        0.677059    0.618235    0.530000     0.007504
PD9905   PD        0.706471    0.588824    0.530000     0.005394
PD9906   PD        0.706471    0.618235    0.559412     0.005394
PD9907   PD        0.735882    0.588824    0.559412     0.005394
AU9908   AU        0.735882    0.618235    0.530000     0.007504
PD9909   PD        0.765294    0.588824    0.530000     0.005394
PD9910   PD        0.765294    0.618235    0.559412     0.005394
AU9911   AU        0.794706    0.588824    0.559412     0.007504
PD9912   PD        0.794706    0.618235    0.530000     0.005394
PD9933   PD        0.177059    0.647647    0.530000     0.005394
AU9935   AU        0.206471    0.647647    0.559412     0.007504
AU9936   AU        0.206471    0.677059    0.530000     0.007504
AU9937   AU        0.235882    0.647647    0.530000     0.007504
PD9938   PD        0.235882    0.677059    0.559412     0.005394
AU9939   AU        0.265294    0.647647    0.559412     0.007504
AU9940   AU        0.265294    0.677059    0.530000     0.007504
AU9941   AU        0.294706    0.647647    0.530000     0.007504
AU9942   AU        0.294706    0.677059    0.559412     0.007504
AU9943   AU        0.324118    0.647647    0.559412     0.007504
AU9944   AU        0.324118    0.677059    0.530000     0.007504
PD9945   PD        0.353529    0.647647    0.530000     0.005394
PD9946   PD        0.353529    0.677059    0.559412     0.005394
PD9947   PD        0.382941    0.647647    0.559412     0.005394
AU9948   AU        0.382941    0.677059    0.530000     0.007504
AU9949   AU        0.412353    0.647647    0.530000     0.007504
AU9950   AU        0.412353    0.677059    0.559412     0.007504
PD9951   PD        0.441765    0.647647    0.559412     0.005394
PD9952   PD        0.441765    0.677059    0.530000     0.005394
PD9953   PD        0.471176    0.647647    0.530000     0.005394
PD9954   PD        0.471176    0.677059    0.559412     0.005394
PD9955   PD        0.500588    0.647647    0.559412     0.005394
AU9956   AU        0.500588    0.677059    0.530000     0.007504
AU9957   AU        0.530000    0.647647    0.530000     0.007504
AU9958   AU        0.530000    0.677059    0.559412     0.007504
PD9959   PD        0.559412    0.647647    0.559412     0.005394
AU9960   AU        0.559412    0.677059    0.530000     0.007504
AU9961   AU        0.588824    0.647647    0.530000     0.007504
PD9962   PD        0.588824    0.677059    0.559412     0.005394
PD9963   PD        0.618235    0.647647    0.559412     0.005394
AU9964   AU        0.618235    0.677059    0.530000     0.007504
PD9965   PD        0.647647    0.647647    0.530000     0.005394
AU9966   AU        0.647647    0.677059    0.559412     0.007504
AU9967   AU        0.677059    0.647647    0.559412     0.007504
PD9968   PD        0.677059    0.677059    0.530000     0.005394
PD9969   PD        0.706471    0.647647    0.530000     0.005394
PD9970   PD        0.706471    0.677059    0.559412     0.005394
AU9971   AU        0.735882    0.647647    0.559412     0.007504
AU9972   AU        0.735882    0.677059    0.530000     0.007504
PD9973   PD        0.765294    0.647647    0.530000     0.005394
AU10001   AU        0.235882    0.706471    0.530000     0.007504
PD10003   PD        0.265294    0.706471    0.559412     0.005394
AU10004   AU        0.265294    0.735882    0.530000     0.007504
PD10005   PD        0.294706    0.706471    0.530000     0.005394
PD10006   PD        0.294706    0.735882    0.559412     0.005394
PD10007   PD        0.324118    0.706471    0.559412     0.005394
AU10008   AU        0.324118    0.735882    0.530000     0.007504
AU10009   AU        0.353529    0.706471    0.530000     0.007504
AU10010   AU        0.353529    0.735882    0.559412     0.007504
PD10011   PD        0.382941    0.706471    0.559412     0.005394
PD10012   PD        0.382941    0.735882    0.530000     0.005394
AU10013   AU        0.412353    0.706471    0.530000     0.007504
PD10014   PD        0.412353    0.735882    0.559412     0.005394
AU10015   AU        0.441765    0.706471    0.559412     0.007504
AU10016   AU        0.441765    0.735882    0.530000     0.007504
AU10017   AU        0.471176    0.706471    0.530000     0.007504
AU10018   AU        0.471176    0.735882    0.559412     0.007504
AU10019   AU        0.500588    0.706471    0.559412     0.007504
PD10020   PD        0.500588    0.735882    0.530000     0.005394
PD10021   PD        0.530000    0.706471    0.530000     0.005394
AU10022   AU        0.530000    0.735882    0.559412     0.007504
PD10023   PD        0.559412    0.706471    0.559412     0.005394
PD10024   PD        0.559412    0.735882    0.530000     0.005394
PD10025   PD        0.588824    0.706471    0.530000     0.005394
AU10026   AU        0.588824    0.735882    0.559412     0.007504
PD10027   PD        0.618235    0.706471    0.559412     0.005394
PD10028   PD        0.618235    0.735882    0.530000     0.005394
PD10029   PD        0.647647    0.706471    0.530000     0.005394
PD10030   PD        0.647647    0.735882    0.559412     0.005394
PD10031   PD        0.677059    0.706471    0.559412     0.005394
AU10032   AU        0.677059    0.735882    0.530000     0.007504
AU10033   AU        0.706471    0.706471    0.530000     0.007504
PD10069   PD        0.294706    0.765294    0.530000     0.005394
PD10071   PD        0.324118    0.765294    0.559412     0.005394
AU10072   AU        0.324118    0.794706    0.530000     0.007504
AU10073   AU        0.353529    0.765294    0.530000     0.007504
PD10074   PD        0.353529    0.794706    0.559412     0.005394
PD10075   PD        0.382941    0.765294    0.559412     0.005394
PD10076   PD        0.382941    0.794706    0.530000     0.005394
AU10077   AU        0.412353    0.765294    0.530000     0.007504
AU10078   AU        0.412353    0.794706    0.559412     0.007504
AU10079   AU        0.441765    0.765294    0.559412     0.007504
PD10080   PD        0.441765    0.794706    0.530000     0.005394
AU10081   AU        0.471176    0.765294    0.530000     0.007504
AU10082   AU        0.471176    0.794706    0.559412     0.007504
AU10083   AU        0.500588    0.765294    0.559412     0.007504
PD10084   PD        0.500588    0.794706    0.530000     0.005394
PD10085   PD        0.530000    0.765294    0.530000     0.005394
AU10086   AU        0.530000    0.794706    0.559412     0.007504
AU10087   AU        0.559412    0.765294    0.559412     0.007504
AU10088   AU        0.559412    0.794706    0.530000     0.007504
PD10089   PD        0.588824    0.765294    0.530000     0.005394
PD10090   PD        0.588824    0.794706    0.559412     0.005394
AU10091   AU        0.618235    0.765294    0.559412     0.007504
AU10092   AU        0.618235    0.794706    0.530000     0.007504
PD10093   PD        0.647647    0.765294    0.530000     0.005394
PD10145   PD        0.471176    0.824118    0.530000     0.005394
PD10396   PD        0.382941    0.147647    0.588824     0.005394
PD10398   PD        0.412353    0.147647    0.618235     0.005394
PD10400   PD        0.441765    0.147647    0.588824     0.005394
PD10402   PD        0.471176    0.147647    0.618235     0.005394
PD10404   PD        0.500588    0.147647    0.588824     0.005394
PD10406   PD        0.530000    0.147647    0.618235     0.005394
AU10408   AU        0.559412    0.147647    0.588824     0.007504
AU10452   AU        0.265294    0.206471    0.588824     0.007504
PD10454   PD        0.294706    0.206471    0.618235     0.005394
AU10455   AU        0.324118    0.177059    0.618235     0.007504
AU10456   AU        0.324118    0.206471    0.588824     0.007504
AU10457   AU        0.353529    0.177059    0.588824     0.007504
AU10458   AU        0.353529    0.206471    0.618235     0.007504
AU10459   AU        0.382941    0.177059    0.618235     0.007504
AU10460   AU        0.382941    0.206471    0.588824     0.007504
PD10461   PD        0.412353    0.177059    0.588824     0.005394
AU10462   AU        0.412353    0.206471    0.618235     0.007504
AU10463   AU        0.441765    0.177059    0.618235     0.007504
AU10464   AU        0.441765    0.206471    0.588824     0.007504
PD10465   PD        0.471176    0.177059    0.588824     0.005394
AU10466   AU        0.471176    0.206471    0.618235     0.007504
PD10467   PD        0.500588    0.177059    0.618235     0.005394
PD10468   PD        0.500588    0.206471    0.588824     0.005394
PD10469   PD        0.530000    0.177059    0.588824     0.005394
PD10470   PD        0.530000    0.206471    0.618235     0.005394
PD10471   PD        0.559412    0.177059    0.618235     0.005394
AU10472   AU        0.559412    0.206471    0.588824     0.007504
PD10473   PD        0.588824    0.177059    0.588824     0.005394
PD10474   PD        0.588824    0.206471    0.618235     0.005394
PD10475   PD        0.618235    0.177059    0.618235     0.005394
AU10476   AU        0.618235    0.206471    0.588824     0.007504
AU10478   AU        0.647647    0.206471    0.618235     0.007504
AU10480   AU        0.677059    0.206471    0.588824     0.007504
AU10512   AU        0.206471    0.265294    0.588824     0.007504
PD10513   PD        0.235882    0.235882    0.588824     0.005394
PD10514   PD        0.235882    0.265294    0.618235     0.005394
PD10515   PD        0.265294    0.235882    0.618235     0.005394
PD10516   PD        0.265294    0.265294    0.588824     0.005394
AU10517   AU        0.294706    0.235882    0.588824     0.007504
PD10518   PD        0.294706    0.265294    0.618235     0.005394
PD10519   PD        0.324118    0.235882    0.618235     0.005394
PD10520   PD        0.324118    0.265294    0.588824     0.005394
AU10521   AU        0.353529    0.235882    0.588824     0.007504
AU10522   AU        0.353529    0.265294    0.618235     0.007504
AU10523   AU        0.382941    0.235882    0.618235     0.007504
PD10524   PD        0.382941    0.265294    0.588824     0.005394
AU10525   AU        0.412353    0.235882    0.588824     0.007504
AU10526   AU        0.412353    0.265294    0.618235     0.007504
PD10527   PD        0.441765    0.235882    0.618235     0.005394
PD10528   PD        0.441765    0.265294    0.588824     0.005394
PD10529   PD        0.471176    0.235882    0.588824     0.005394
PD10530   PD        0.471176    0.265294    0.618235     0.005394
PD10531   PD        0.500588    0.235882    0.618235     0.005394
PD10532   PD        0.500588    0.265294    0.588824     0.005394
PD10533   PD        0.530000    0.235882    0.588824     0.005394
AU10534   AU        0.530000    0.265294    0.618235     0.007504
PD10535   PD        0.559412    0.235882    0.618235     0.005394
PD10536   PD        0.559412    0.265294    0.588824     0.005394
PD10537   PD        0.588824    0.235882    0.588824     0.005394
PD10538   PD        0.588824    0.265294    0.618235     0.005394
PD10539   PD        0.618235    0.235882    0.618235     0.005394
AU10540   AU        0.618235    0.265294    0.588824     0.007504
AU10541   AU        0.647647    0.235882    0.588824     0.007504
PD10542   PD        0.647647    0.265294    0.618235     0.005394
AU10543   AU        0.677059    0.235882    0.618235     0.007504
PD10544   PD        0.677059    0.265294    0.588824     0.005394
AU10545   AU        0.706471    0.235882    0.588824     0.007504
AU10546   AU        0.706471    0.265294    0.618235     0.007504
PD10548   PD        0.735882    0.265294    0.588824     0.005394
PD10574   PD        0.177059    0.324118    0.618235     0.005394
AU10575   AU        0.206471    0.294706    0.618235     0.007504
AU10576   AU        0.206471    0.324118    0.588824     0.007504
PD10577   PD        0.235882    0.294706    0.588824     0.005394
PD10578   PD        0.235882    0.324118    0.618235     0.005394
PD10579   PD        0.265294    0.294706    0.618235     0.005394
AU10580   AU        0.265294    0.324118    0.588824     0.007504
PD10581   PD        0.294706    0.294706    0.588824     0.005394
PD10582   PD        0.294706    0.324118    0.618235     0.005394
PD10583   PD        0.324118    0.294706    0.618235     0.005394
PD10584   PD        0.324118    0.324118    0.588824     0.005394
AU10585   AU        0.353529    0.294706    0.588824     0.007504
AU10586   AU        0.353529    0.324118    0.618235     0.007504
AU10587   AU        0.382941    0.294706    0.618235     0.007504
PD10588   PD        0.382941    0.324118    0.588824     0.005394
PD10589   PD        0.412353    0.294706    0.588824     0.005394
AU10590   AU        0.412353    0.324118    0.618235     0.007504
AU10591   AU        0.441765    0.294706    0.618235     0.007504
PD10592   PD        0.441765    0.324118    0.588824     0.005394
PD10593   PD        0.471176    0.294706    0.588824     0.005394
PD10594   PD        0.471176    0.324118    0.618235     0.005394
AU10595   AU        0.500588    0.294706    0.618235     0.007504
AU10596   AU        0.500588    0.324118    0.588824     0.007504
PD10597   PD        0.530000    0.294706    0.588824     0.005394
PD10598   PD        0.530000    0.324118    0.618235     0.005394
PD10599   PD        0.559412    0.294706    0.618235     0.005394
PD10600   PD        0.559412    0.324118    0.588824     0.005394
PD10601   PD        0.588824    0.294706    0.588824     0.005394
AU10602   AU        0.588824    0.324118    0.618235     0.007504
AU10603   AU        0.618235    0.294706    0.618235     0.007504
AU10604   AU        0.618235    0.324118    0.588824     0.007504
AU10605   AU        0.647647    0.294706    0.588824     0.007504
PD10606   PD        0.647647    0.324118    0.618235     0.005394
AU10607   AU        0.677059    0.294706    0.618235     0.007504
AU10608   AU        0.677059    0.324118    0.588824     0.007504
AU10609   AU        0.706471    0.294706    0.588824     0.007504
AU10610   AU        0.706471    0.324118    0.618235     0.007504
AU10611   AU        0.735882    0.294706    0.618235     0.007504
AU10612   AU        0.735882    0.324118    0.588824     0.007504
AU10614   AU        0.765294    0.324118    0.618235     0.007504
AU10636   AU        0.147647    0.382941    0.588824     0.007504
PD10637   PD        0.177059    0.353529    0.588824     0.005394
PD10638   PD        0.177059    0.382941    0.618235     0.005394
AU10639   AU        0.206471    0.353529    0.618235     0.007504
PD10640   PD        0.206471    0.382941    0.588824     0.005394
PD10641   PD        0.235882    0.353529    0.588824     0.005394
PD10642   PD        0.235882    0.382941    0.618235     0.005394
PD10643   PD        0.265294    0.353529    0.618235     0.005394
AU10644   AU        0.265294    0.382941    0.588824     0.007504
AU10645   AU        0.294706    0.353529    0.588824     0.007504
AU10646   AU        0.294706    0.382941    0.618235     0.007504
AU10647   AU        0.324118    0.353529    0.618235     0.007504
AU10648   AU        0.324118    0.382941    0.588824     0.007504
AU10649   AU        0.353529    0.353529    0.588824     0.007504
AU10650   AU        0.353529    0.382941    0.618235     0.007504
AU10651   AU        0.382941    0.353529    0.618235     0.007504
PD10652   PD        0.382941    0.382941    0.588824     0.005394
PD10653   PD        0.412353    0.353529    0.588824     0.005394
PD10654   PD        0.412353    0.382941    0.618235     0.005394
AU10655   AU        0.441765    0.353529    0.618235     0.007504
AU10656   AU        0.441765    0.382941    0.588824     0.007504
AU10657   AU        0.471176    0.353529    0.588824     0.007504
AU10658   AU        0.471176    0.382941    0.618235     0.007504
AU10659   AU        0.500588    0.353529    0.618235     0.007504
AU10660   AU        0.500588    0.382941    0.588824     0.007504
AU10661   AU        0.530000    0.353529    0.588824     0.007504
PD10662   PD        0.530000    0.382941    0.618235     0.005394
PD10663   PD        0.559412    0.353529    0.618235     0.005394
PD10664   PD        0.559412    0.382941    0.588824     0.005394
AU10665   AU        0.588824    0.353529    0.588824     0.007504
AU10666   AU        0.588824    0.382941    0.618235     0.007504
PD10667   PD        0.618235    0.353529    0.618235     0.005394
AU10668   AU        0.618235    0.382941    0.588824     0.007504
PD10669   PD        0.647647    0.353529    0.588824     0.005394
AU10670   AU        0.647647    0.382941    0.618235     0.007504
PD10671   PD        0.677059    0.353529    0.618235     0.005394
PD10672   PD        0.677059    0.382941    0.588824     0.005394
PD10673   PD        0.706471    0.353529    0.588824     0.005394
AU10674   AU        0.706471    0.382941    0.618235     0.007504
AU10675   AU        0.735882    0.353529    0.618235     0.007504
AU10676   AU        0.735882    0.382941    0.588824     0.007504
PD10677   PD        0.765294    0.353529    0.588824     0.005394
PD10678   PD        0.765294    0.382941    0.618235     0.005394
PD10680   PD        0.794706    0.382941    0.588824     0.005394
AU10699   AU        0.147647    0.412353    0.618235     0.007504
PD10700   PD        0.147647    0.441765    0.588824     0.005394
AU10701   AU        0.177059    0.412353    0.588824     0.007504
PD10702   PD        0.177059    0.441765    0.618235     0.005394
AU10703   AU        0.206471    0.412353    0.618235     0.007504
PD10704   PD        0.206471    0.441765    0.588824     0.005394
AU10705   AU        0.235882    0.412353    0.588824     0.007504
PD10706   PD        0.235882    0.441765    0.618235     0.005394
AU10707   AU        0.265294    0.412353    0.618235     0.007504
AU10708   AU        0.265294    0.441765    0.588824     0.007504
AU10709   AU        0.294706    0.412353    0.588824     0.007504
PD10710   PD        0.294706    0.441765    0.618235     0.005394
AU10711   AU        0.324118    0.412353    0.618235     0.007504
PD10712   PD        0.324118    0.441765    0.588824     0.005394
PD10713   PD        0.353529    0.412353    0.588824     0.005394
PD10714   PD        0.353529    0.441765    0.618235     0.005394
PD10715   PD        0.382941    0.412353    0.618235     0.005394
PD10716   PD        0.382941    0.441765    0.588824     0.005394
AU10717   AU        0.412353    0.412353    0.588824     0.007504
PD10718   PD        0.412353    0.441765    0.618235     0.005394
PD10719   PD        0.441765    0.412353    0.618235     0.005394
AU10720   AU        0.441765    0.441765    0.588824     0.007504
AU10721   AU        0.471176    0.412353    0.588824     0.007504
AU10722   AU        0.471176    0.441765    0.618235     0.007504
AU10723   AU        0.500588    0.412353    0.618235     0.007504
AU10724   AU        0.500588    0.441765    0.588824     0.007504
AU10725   AU        0.530000    0.412353    0.588824     0.007504
AU10726   AU        0.530000    0.441765    0.618235     0.007504
PD10727   PD        0.559412    0.412353    0.618235     0.005394
AU10728   AU        0.559412    0.441765    0.588824     0.007504
PD10729   PD        0.588824    0.412353    0.588824     0.005394
AU10730   AU        0.588824    0.441765    0.618235     0.007504
PD10731   PD        0.618235    0.412353    0.618235     0.005394
AU10732   AU        0.618235    0.441765    0.588824     0.007504
AU10733   AU        0.647647    0.412353    0.588824     0.007504
AU10734   AU        0.647647    0.441765    0.618235     0.007504
AU10735   AU        0.677059    0.412353    0.618235     0.007504
AU10736   AU        0.677059    0.441765    0.588824     0.007504
AU10737   AU        0.706471    0.412353    0.588824     0.007504
PD10738   PD        0.706471    0.441765    0.618235     0.005394
AU10739   AU        0.735882    0.412353    0.618235     0.007504
PD10740   PD        0.735882    0.441765    0.588824     0.005394
PD10741   PD        0.765294    0.412353    0.588824     0.005394
PD10742   PD        0.765294    0.441765    0.618235     0.005394
AU10743   AU        0.794706    0.412353    0.618235     0.007504
AU10744   AU        0.794706    0.441765    0.588824     0.007504
AU10763   AU        0.147647    0.471176    0.618235     0.007504
AU10764   AU        0.147647    0.500588    0.588824     0.007504
AU10765   AU        0.177059    0.471176    0.588824     0.007504
AU10766   AU        0.177059    0.500588    0.618235     0.007504
PD10767   PD        0.206471    0.471176    0.618235     0.005394
PD10768   PD        0.206471    0.500588    0.588824     0.005394
AU10769   AU        0.235882    0.471176    0.588824     0.007504
PD10770   PD        0.235882    0.500588    0.618235     0.005394
AU10771   AU        0.265294    0.471176    0.618235     0.007504
PD10772   PD        0.265294    0.500588    0.588824     0.005394
PD10773   PD        0.294706    0.471176    0.588824     0.005394
PD10774   PD        0.294706    0.500588    0.618235     0.005394
AU10775   AU        0.324118    0.471176    0.618235     0.007504
AU10776   AU        0.324118    0.500588    0.588824     0.007504
AU10777   AU        0.353529    0.471176    0.588824     0.007504
AU10778   AU        0.353529    0.500588    0.618235     0.007504
AU10779   AU        0.382941    0.471176    0.618235     0.007504
PD10780   PD        0.382941    0.500588    0.588824     0.005394
AU10781   AU        0.412353    0.471176    0.588824     0.007504
AU10782   AU        0.412353    0.500588    0.618235     0.007504
AU10783   AU        0.441765    0.471176    0.618235     0.007504
AU10784   AU        0.441765    0.500588    0.588824     0.007504
AU10785   AU        0.471176    0.471176    0.588824     0.007504
PD10786   PD        0.471176    0.500588    0.618235     0.005394
AU10787   AU        0.500588    0.471176    0.618235     0.007504
AU10788   AU        0.500588    0.500588    0.588824     0.007504
PD10789   PD        0.530000    0.471176    0.588824     0.005394
PD10790   PD        0.530000    0.500588    0.618235     0.005394
AU10791   AU        0.559412    0.471176    0.618235     0.007504
PD10792   PD        0.559412    0.500588    0.588824     0.005394
AU10793   AU        0.588824    0.471176    0.588824     0.007504
AU10794   AU        0.588824    0.500588    0.618235     0.007504
AU10795   AU        0.618235    0.471176    0.618235     0.007504
AU10796   AU        0.618235    0.500588    0.588824     0.007504
PD10797   PD        0.647647    0.471176    0.588824     0.005394
AU10798   AU        0.647647    0.500588    0.618235     0.007504
PD10799   PD        0.677059    0.471176    0.618235     0.005394
PD10800   PD        0.677059    0.500588    0.588824     0.005394
PD10801   PD        0.706471    0.471176    0.588824     0.005394
AU10802   AU        0.706471    0.500588    0.618235     0.007504
AU10803   AU        0.735882    0.471176    0.618235     0.007504
AU10804   AU        0.735882    0.500588    0.588824     0.007504
PD10805   PD        0.765294    0.471176    0.588824     0.005394
PD10806   PD        0.765294    0.500588    0.618235     0.005394
AU10807   AU        0.794706    0.471176    0.618235     0.007504
PD10808   PD        0.794706    0.500588    0.588824     0.005394
AU10827   AU        0.147647    0.530000    0.618235     0.007504
PD10828   PD        0.147647    0.559412    0.588824     0.005394
AU10829   AU        0.177059    0.530000    0.588824     0.007504
PD10830   PD        0.177059    0.559412    0.618235     0.005394
PD10831   PD        0.206471    0.530000    0.618235     0.005394
AU10832   AU        0.206471    0.559412    0.588824     0.007504
AU10833   AU        0.235882    0.530000    0.588824     0.007504
AU10834   AU        0.235882    0.559412    0.618235     0.007504
PD10835   PD        0.265294    0.530000    0.618235     0.005394
AU10836   AU        0.265294    0.559412    0.588824     0.007504
AU10837   AU        0.294706    0.530000    0.588824     0.007504
PD10838   PD        0.294706    0.559412    0.618235     0.005394
PD10839   PD        0.324118    0.530000    0.618235     0.005394
AU10840   AU        0.324118    0.559412    0.588824     0.007504
PD10841   PD        0.353529    0.530000    0.588824     0.005394
PD10842   PD        0.353529    0.559412    0.618235     0.005394
AU10843   AU        0.382941    0.530000    0.618235     0.007504
PD10844   PD        0.382941    0.559412    0.588824     0.005394
AU10845   AU        0.412353    0.530000    0.588824     0.007504
AU10846   AU        0.412353    0.559412    0.618235     0.007504
PD10847   PD        0.441765    0.530000    0.618235     0.005394
PD10848   PD        0.441765    0.559412    0.588824     0.005394
AU10849   AU        0.471176    0.530000    0.588824     0.007504
AU10850   AU        0.471176    0.559412    0.618235     0.007504
PD10851   PD        0.500588    0.530000    0.618235     0.005394
AU10852   AU        0.500588    0.559412    0.588824     0.007504
AU10853   AU        0.530000    0.530000    0.588824     0.007504
AU10854   AU        0.530000    0.559412    0.618235     0.007504
PD10855   PD        0.559412    0.530000    0.618235     0.005394
PD10856   PD        0.559412    0.559412    0.588824     0.005394
AU10857   AU        0.588824    0.530000    0.588824     0.007504
PD10858   PD        0.588824    0.559412    0.618235     0.005394
PD10859   PD        0.618235    0.530000    0.618235     0.005394
PD10860   PD        0.618235    0.559412    0.588824     0.005394
PD10861   PD        0.647647    0.530000    0.588824     0.005394
PD10862   PD        0.647647    0.559412    0.618235     0.005394
AU10863   AU        0.677059    0.530000    0.618235     0.007504
AU10864   AU        0.677059    0.559412    0.588824     0.007504
PD10865   PD        0.706471    0.530000    0.588824     0.005394
AU10866   AU        0.706471    0.559412    0.618235     0.007504
PD10867   PD        0.735882    0.530000    0.618235     0.005394
PD10868   PD        0.735882    0.559412    0.588824     0.005394
PD10869   PD        0.765294    0.530000    0.588824     0.005394
AU10870   AU        0.765294    0.559412    0.618235     0.007504
PD10871   PD        0.794706    0.530000    0.618235     0.005394
PD10872   PD        0.794706    0.559412    0.588824     0.005394
AU10893   AU        0.177059    0.588824    0.588824     0.007504
AU10894   AU        0.177059    0.618235    0.618235     0.007504
AU10895   AU        0.206471    0.588824    0.618235     0.007504
AU10896   AU        0.206471    0.618235    0.588824     0.007504
AU10897   AU        0.235882    0.588824    0.588824     0.007504
AU10898   AU        0.235882    0.618235    0.618235     0.007504
AU10899   AU        0.265294    0.588824    0.618235     0.007504
AU10900   AU        0.265294    0.618235    0.588824     0.007504
PD10901   PD        0.294706    0.588824    0.588824     0.005394
AU10902   AU        0.294706    0.618235    0.618235     0.007504
AU10903   AU        0.324118    0.588824    0.618235     0.007504
AU10904   AU        0.324118    0.618235    0.588824     0.007504
AU10905   AU        0.353529    0.588824    0.588824     0.007504
PD10906   PD        0.353529    0.618235    0.618235     0.005394
AU10907   AU        0.382941    0.588824    0.618235     0.007504
AU10908   AU        0.382941    0.618235    0.588824     0.007504
AU10909   AU        0.412353    0.588824    0.588824     0.007504
PD10910   PD        0.412353    0.618235    0.618235     0.005394
PD10911   PD        0.441765    0.588824    0.618235     0.005394
AU10912   AU        0.441765    0.618235    0.588824     0.007504
PD10913   PD        0.471176    0.588824    0.588824     0.005394
PD10914   PD        0.471176    0.618235    0.618235     0.005394
PD10915   PD        0.500588    0.588824    0.618235     0.005394
AU10916   AU        0.500588    0.618235    0.588824     0.007504
AU10917   AU        0.530000    0.588824    0.588824     0.007504
AU10918   AU        0.530000    0.618235    0.618235     0.007504
PD10919   PD        0.559412    0.588824    0.618235     0.005394
PD10920   PD        0.559412    0.618235    0.588824     0.005394
AU10921   AU        0.588824    0.588824    0.588824     0.007504
AU10922   AU        0.588824    0.618235    0.618235     0.007504
PD10923   PD        0.618235    0.588824    0.618235     0.005394
PD10924   PD        0.618235    0.618235    0.588824     0.005394
PD10925   PD        0.647647    0.588824    0.588824     0.005394
PD10926   PD        0.647647    0.618235    0.618235     0.005394
AU10927   AU        0.677059    0.588824    0.618235     0.007504
PD10928   PD        0.677059    0.618235    0.588824     0.005394
AU10929   AU        0.706471    0.588824    0.588824     0.007504
PD10930   PD        0.706471    0.618235    0.618235     0.005394
AU10931   AU        0.735882    0.588824    0.618235     0.007504
PD10932   PD        0.735882    0.618235    0.588824     0.005394
AU10933   AU        0.765294    0.588824    0.588824     0.007504
PD10934   PD        0.765294    0.618235    0.618235     0.005394
AU10959   AU        0.206471    0.647647    0.618235     0.007504
AU10960   AU        0.206471    0.677059    0.588824     0.007504
AU10961   AU        0.235882    0.647647    0.588824     0.007504
PD10962   PD        0.235882    0.677059    0.618235     0.005394
AU10963   AU        0.265294    0.647647    0.618235     0.007504
AU10964   AU        0.265294    0.677059    0.588824     0.007504
AU10965   AU        0.294706    0.647647    0.588824     0.007504
AU10966   AU        0.294706    0.677059    0.618235     0.007504
PD10967   PD        0.324118    0.647647    0.618235     0.005394
AU10968   AU        0.324118    0.677059    0.588824     0.007504
AU10969   AU        0.353529    0.647647    0.588824     0.007504
AU10970   AU        0.353529    0.677059    0.618235     0.007504
PD10971   PD        0.382941    0.647647    0.618235     0.005394
AU10972   AU        0.382941    0.677059    0.588824     0.007504
AU10973   AU        0.412353    0.647647    0.588824     0.007504
AU10974   AU        0.412353    0.677059    0.618235     0.007504
AU10975   AU        0.441765    0.647647    0.618235     0.007504
PD10976   PD        0.441765    0.677059    0.588824     0.005394
AU10977   AU        0.471176    0.647647    0.588824     0.007504
AU10978   AU        0.471176    0.677059    0.618235     0.007504
PD10979   PD        0.500588    0.647647    0.618235     0.005394
PD10980   PD        0.500588    0.677059    0.588824     0.005394
AU10981   AU        0.530000    0.647647    0.588824     0.007504
PD10982   PD        0.530000    0.677059    0.618235     0.005394
PD10983   PD        0.559412    0.647647    0.618235     0.005394
PD10984   PD        0.559412    0.677059    0.588824     0.005394
AU10985   AU        0.588824    0.647647    0.588824     0.007504
PD10986   PD        0.588824    0.677059    0.618235     0.005394
PD10987   PD        0.618235    0.647647    0.618235     0.005394
AU10988   AU        0.618235    0.677059    0.588824     0.007504
AU10989   AU        0.647647    0.647647    0.588824     0.007504
AU10990   AU        0.647647    0.677059    0.618235     0.007504
AU10991   AU        0.677059    0.647647    0.618235     0.007504
AU10992   AU        0.677059    0.677059    0.588824     0.007504
AU10993   AU        0.706471    0.647647    0.588824     0.007504
AU10994   AU        0.706471    0.677059    0.618235     0.007504
PD10995   PD        0.735882    0.647647    0.618235     0.005394
AU10996   AU        0.735882    0.677059    0.588824     0.007504
PD11025   PD        0.235882    0.706471    0.588824     0.005394
AU11027   AU        0.265294    0.706471    0.618235     0.007504
PD11028   PD        0.265294    0.735882    0.588824     0.005394
PD11029   PD        0.294706    0.706471    0.588824     0.005394
PD11030   PD        0.294706    0.735882    0.618235     0.005394
PD11031   PD        0.324118    0.706471    0.618235     0.005394
AU11032   AU        0.324118    0.735882    0.588824     0.007504
AU11033   AU        0.353529    0.706471    0.588824     0.007504
PD11034   PD        0.353529    0.735882    0.618235     0.005394
PD11035   PD        0.382941    0.706471    0.618235     0.005394
AU11036   AU        0.382941    0.735882    0.588824     0.007504
PD11037   PD        0.412353    0.706471    0.588824     0.005394
AU11038   AU        0.412353    0.735882    0.618235     0.007504
PD11039   PD        0.441765    0.706471    0.618235     0.005394
AU11040   AU        0.441765    0.735882    0.588824     0.007504
AU11041   AU        0.471176    0.706471    0.588824     0.007504
AU11042   AU        0.471176    0.735882    0.618235     0.007504
AU11043   AU        0.500588    0.706471    0.618235     0.007504
PD11044   PD        0.500588    0.735882    0.588824     0.005394
AU11045   AU        0.530000    0.706471    0.588824     0.007504
PD11046   PD        0.530000    0.735882    0.618235     0.005394
AU11047   AU        0.559412    0.706471    0.618235     0.007504
AU11048   AU        0.559412    0.735882    0.588824     0.007504
AU11049   AU        0.588824    0.706471    0.588824     0.007504
AU11050   AU        0.588824    0.735882    0.618235     0.007504
PD11051   PD        0.618235    0.706471    0.618235     0.005394
PD11052   PD        0.618235    0.735882    0.588824     0.005394
PD11053   PD        0.647647    0.706471    0.588824     0.005394
PD11054   PD        0.647647    0.735882    0.618235     0.005394
AU11055   AU        0.677059    0.706471    0.618235     0.007504
PD11056   PD        0.677059    0.735882    0.588824     0.005394
PD11057   PD        0.706471    0.706471    0.588824     0.005394
AU11095   AU        0.324118    0.765294    0.618235     0.007504
AU11097   AU        0.353529    0.765294    0.588824     0.007504
AU11099   AU        0.382941    0.765294    0.618235     0.007504
AU11100   AU        0.382941    0.794706    0.588824     0.007504
AU11101   AU        0.412353    0.765294    0.588824     0.007504
PD11102   PD        0.412353    0.794706    0.618235     0.005394
AU11103   AU        0.441765    0.765294    0.618235     0.007504
PD11104   PD        0.441765    0.794706    0.588824     0.005394
AU11105   AU        0.471176    0.765294    0.588824     0.007504
PD11106   PD        0.471176    0.794706    0.618235     0.005394
AU11107   AU        0.500588    0.765294    0.618235     0.007504
AU11108   AU        0.500588    0.794706    0.588824     0.007504
PD11109   PD        0.530000    0.765294    0.588824     0.005394
PD11110   PD        0.530000    0.794706    0.618235     0.005394
AU11111   AU        0.559412    0.765294    0.618235     0.007504
AU11112   AU        0.559412    0.794706    0.588824     0.007504
PD11113   PD        0.588824    0.765294    0.588824     0.005394
PD11115   PD        0.618235    0.765294    0.618235     0.005394
PD11480   PD        0.324118    0.206471    0.647647     0.005394
AU11482   AU        0.353529    0.206471    0.677059     0.007504
PD11484   PD        0.382941    0.206471    0.647647     0.005394
PD11485   PD        0.412353    0.177059    0.647647     0.005394
AU11486   AU        0.412353    0.206471    0.677059     0.007504
AU11487   AU        0.441765    0.177059    0.677059     0.007504
AU11488   AU        0.441765    0.206471    0.647647     0.007504
PD11489   PD        0.471176    0.177059    0.647647     0.005394
PD11490   PD        0.471176    0.206471    0.677059     0.005394
AU11491   AU        0.500588    0.177059    0.677059     0.007504
AU11492   AU        0.500588    0.206471    0.647647     0.007504
PD11493   PD        0.530000    0.177059    0.647647     0.005394
PD11494   PD        0.530000    0.206471    0.677059     0.005394
PD11496   PD        0.559412    0.206471    0.647647     0.005394
AU11498   AU        0.588824    0.206471    0.677059     0.007504
AU11500   AU        0.618235    0.206471    0.647647     0.007504
AU11540   AU        0.265294    0.265294    0.647647     0.007504
AU11541   AU        0.294706    0.235882    0.647647     0.007504
PD11542   PD        0.294706    0.265294    0.677059     0.005394
AU11543   AU        0.324118    0.235882    0.677059     0.007504
AU11544   AU        0.324118    0.265294    0.647647     0.007504
AU11545   AU        0.353529    0.235882    0.647647     0.007504
AU11546   AU        0.353529    0.265294    0.677059     0.007504
AU11547   AU        0.382941    0.235882    0.677059     0.007504
AU11548   AU        0.382941    0.265294    0.647647     0.007504
AU11549   AU        0.412353    0.235882    0.647647     0.007504
PD11550   PD        0.412353    0.265294    0.677059     0.005394
AU11551   AU        0.441765    0.235882    0.677059     0.007504
AU11552   AU        0.441765    0.265294    0.647647     0.007504
PD11553   PD        0.471176    0.235882    0.647647     0.005394
PD11554   PD        0.471176    0.265294    0.677059     0.005394
AU11555   AU        0.500588    0.235882    0.677059     0.007504
PD11556   PD        0.500588    0.265294    0.647647     0.005394
PD11557   PD        0.530000    0.235882    0.647647     0.005394
AU11558   AU        0.530000    0.265294    0.677059     0.007504
AU11559   AU        0.559412    0.235882    0.677059     0.007504
PD11560   PD        0.559412    0.265294    0.647647     0.005394
AU11561   AU        0.588824    0.235882    0.647647     0.007504
PD11562   PD        0.588824    0.265294    0.677059     0.005394
PD11563   PD        0.618235    0.235882    0.677059     0.005394
AU11564   AU        0.618235    0.265294    0.647647     0.007504
AU11565   AU        0.647647    0.235882    0.647647     0.007504
PD11566   PD        0.647647    0.265294    0.677059     0.005394
PD11568   PD        0.677059    0.265294    0.647647     0.005394
PD11600   PD        0.206471    0.324118    0.647647     0.005394
PD11601   PD        0.235882    0.294706    0.647647     0.005394
AU11602   AU        0.235882    0.324118    0.677059     0.007504
PD11603   PD        0.265294    0.294706    0.677059     0.005394
AU11604   AU        0.265294    0.324118    0.647647     0.007504
PD11605   PD        0.294706    0.294706    0.647647     0.005394
AU11606   AU        0.294706    0.324118    0.677059     0.007504
AU11607   AU        0.324118    0.294706    0.677059     0.007504
AU11608   AU        0.324118    0.324118    0.647647     0.007504
AU11609   AU        0.353529    0.294706    0.647647     0.007504
PD11610   PD        0.353529    0.324118    0.677059     0.005394
AU11611   AU        0.382941    0.294706    0.677059     0.007504
AU11612   AU        0.382941    0.324118    0.647647     0.007504
PD11613   PD        0.412353    0.294706    0.647647     0.005394
AU11614   AU        0.412353    0.324118    0.677059     0.007504
PD11615   PD        0.441765    0.294706    0.677059     0.005394
PD11616   PD        0.441765    0.324118    0.647647     0.005394
AU11617   AU        0.471176    0.294706    0.647647     0.007504
AU11618   AU        0.471176    0.324118    0.677059     0.007504
PD11619   PD        0.500588    0.294706    0.677059     0.005394
AU11620   AU        0.500588    0.324118    0.647647     0.007504
PD11621   PD        0.530000    0.294706    0.647647     0.005394
AU11622   AU        0.530000    0.324118    0.677059     0.007504
AU11623   AU        0.559412    0.294706    0.677059     0.007504
PD11624   PD        0.559412    0.324118    0.647647     0.005394
PD11625   PD        0.588824    0.294706    0.647647     0.005394
AU11626   AU        0.588824    0.324118    0.677059     0.007504
AU11627   AU        0.618235    0.294706    0.677059     0.007504
PD11628   PD        0.618235    0.324118    0.647647     0.005394
PD11629   PD        0.647647    0.294706    0.647647     0.005394
PD11630   PD        0.647647    0.324118    0.677059     0.005394
PD11631   PD        0.677059    0.294706    0.677059     0.005394
AU11632   AU        0.677059    0.324118    0.647647     0.007504
PD11633   PD        0.706471    0.294706    0.647647     0.005394
AU11634   AU        0.706471    0.324118    0.677059     0.007504
AU11636   AU        0.735882    0.324118    0.647647     0.007504
PD11663   PD        0.206471    0.353529    0.677059     0.005394
PD11664   PD        0.206471    0.382941    0.647647     0.005394
PD11665   PD        0.235882    0.353529    0.647647     0.005394
PD11666   PD        0.235882    0.382941    0.677059     0.005394
PD11667   PD        0.265294    0.353529    0.677059     0.005394
PD11668   PD        0.265294    0.382941    0.647647     0.005394
AU11669   AU        0.294706    0.353529    0.647647     0.007504
AU11670   AU        0.294706    0.382941    0.677059     0.007504
PD11671   PD        0.324118    0.353529    0.677059     0.005394
PD11672   PD        0.324118    0.382941    0.647647     0.005394
AU11673   AU        0.353529    0.353529    0.647647     0.007504
PD11674   PD        0.353529    0.382941    0.677059     0.005394
AU11675   AU        0.382941    0.353529    0.677059     0.007504
AU11676   AU        0.382941    0.382941    0.647647     0.007504
AU11677   AU        0.412353    0.353529    0.647647     0.007504
AU11678   AU        0.412353    0.382941    0.677059     0.007504
AU11679   AU        0.441765    0.353529    0.677059     0.007504
PD11680   PD        0.441765    0.382941    0.647647     0.005394
AU11681   AU        0.471176    0.353529    0.647647     0.007504
AU11682   AU        0.471176    0.382941    0.677059     0.007504
AU11683   AU        0.500588    0.353529    0.677059     0.007504
PD11684   PD        0.500588    0.382941    0.647647     0.005394
AU11685   AU        0.530000    0.353529    0.647647     0.007504
PD11686   PD        0.530000    0.382941    0.677059     0.005394
AU11687   AU        0.559412    0.353529    0.677059     0.007504
PD11688   PD        0.559412    0.382941    0.647647     0.005394
AU11689   AU        0.588824    0.353529    0.647647     0.007504
AU11690   AU        0.588824    0.382941    0.677059     0.007504
AU11691   AU        0.618235    0.353529    0.677059     0.007504
PD11692   PD        0.618235    0.382941    0.647647     0.005394
PD11693   PD        0.647647    0.353529    0.647647     0.005394
PD11694   PD        0.647647    0.382941    0.677059     0.005394
PD11695   PD        0.677059    0.353529    0.677059     0.005394
PD11696   PD        0.677059    0.382941    0.647647     0.005394
PD11697   PD        0.706471    0.353529    0.647647     0.005394
PD11698   PD        0.706471    0.382941    0.677059     0.005394
AU11699   AU        0.735882    0.353529    0.677059     0.007504
PD11700   PD        0.735882    0.382941    0.647647     0.005394
AU11725   AU        0.177059    0.412353    0.647647     0.007504
PD11726   PD        0.177059    0.441765    0.677059     0.005394
AU11727   AU        0.206471    0.412353    0.677059     0.007504
PD11728   PD        0.206471    0.441765    0.647647     0.005394
PD11729   PD        0.235882    0.412353    0.647647     0.005394
PD11730   PD        0.235882    0.441765    0.677059     0.005394
AU11731   AU        0.265294    0.412353    0.677059     0.007504
AU11732   AU        0.265294    0.441765    0.647647     0.007504
AU11733   AU        0.294706    0.412353    0.647647     0.007504
AU11734   AU        0.294706    0.441765    0.677059     0.007504
AU11735   AU        0.324118    0.412353    0.677059     0.007504
AU11736   AU        0.324118    0.441765    0.647647     0.007504
PD11737   PD        0.353529    0.412353    0.647647     0.005394
AU11738   AU        0.353529    0.441765    0.677059     0.007504
PD11739   PD        0.382941    0.412353    0.677059     0.005394
PD11740   PD        0.382941    0.441765    0.647647     0.005394
PD11741   PD        0.412353    0.412353    0.647647     0.005394
AU11742   AU        0.412353    0.441765    0.677059     0.007504
PD11743   PD        0.441765    0.412353    0.677059     0.005394
PD11744   PD        0.441765    0.441765    0.647647     0.005394
PD11745   PD        0.471176    0.412353    0.647647     0.005394
PD11746   PD        0.471176    0.441765    0.677059     0.005394
PD11747   PD        0.500588    0.412353    0.677059     0.005394
AU11748   AU        0.500588    0.441765    0.647647     0.007504
PD11749   PD        0.530000    0.412353    0.647647     0.005394
AU11750   AU        0.530000    0.441765    0.677059     0.007504
AU11751   AU        0.559412    0.412353    0.677059     0.007504
AU11752   AU        0.559412    0.441765    0.647647     0.007504
AU11753   AU        0.588824    0.412353    0.647647     0.007504
PD11754   PD        0.588824    0.441765    0.677059     0.005394
AU11755   AU        0.618235    0.412353    0.677059     0.007504
PD11756   PD        0.618235    0.441765    0.647647     0.005394
AU11757   AU        0.647647    0.412353    0.647647     0.007504
PD11758   PD        0.647647    0.441765    0.677059     0.005394
AU11759   AU        0.677059    0.412353    0.677059     0.007504
AU11760   AU        0.677059    0.441765    0.647647     0.007504
PD11761   PD        0.706471    0.412353    0.647647     0.005394
AU11762   AU        0.706471    0.441765    0.677059     0.007504
AU11763   AU        0.735882    0.412353    0.677059     0.007504
PD11764   PD        0.735882    0.441765    0.647647     0.005394
AU11765   AU        0.765294    0.412353    0.647647     0.007504
PD11766   PD        0.765294    0.441765    0.677059     0.005394
PD11789   PD        0.177059    0.471176    0.647647     0.005394
AU11790   AU        0.177059    0.500588    0.677059     0.007504
AU11791   AU        0.206471    0.471176    0.677059     0.007504
AU11792   AU        0.206471    0.500588    0.647647     0.007504
PD11793   PD        0.235882    0.471176    0.647647     0.005394
AU11794   AU        0.235882    0.500588    0.677059     0.007504
PD11795   PD        0.265294    0.471176    0.677059     0.005394
PD11796   PD        0.265294    0.500588    0.647647     0.005394
AU11797   AU        0.294706    0.471176    0.647647     0.007504
AU11798   AU        0.294706    0.500588    0.677059     0.007504
PD11799   PD        0.324118    0.471176    0.677059     0.005394
PD11800   PD        0.324118    0.500588    0.647647     0.005394
AU11801   AU        0.353529    0.471176    0.647647     0.007504
AU11802   AU        0.353529    0.500588    0.677059     0.007504
AU11803   AU        0.382941    0.471176    0.677059     0.007504
PD11804   PD        0.382941    0.500588    0.647647     0.005394
AU11805   AU        0.412353    0.471176    0.647647     0.007504
AU11806   AU        0.412353    0.500588    0.677059     0.007504
PD11807   PD        0.441765    0.471176    0.677059     0.005394
PD11808   PD        0.441765    0.500588    0.647647     0.005394
AU11809   AU        0.471176    0.471176    0.647647     0.007504
PD11810   PD        0.471176    0.500588    0.677059     0.005394
AU11811   AU        0.500588    0.471176    0.677059     0.007504
PD11812   PD        0.500588    0.500588    0.647647     0.005394
AU11813   AU        0.530000    0.471176    0.647647     0.007504
AU11814   AU        0.530000    0.500588    0.677059     0.007504
PD11815   PD        0.559412    0.471176    0.677059     0.005394
PD11816   PD        0.559412    0.500588    0.647647     0.005394
AU11817   AU        0.588824    0.471176    0.647647     0.007504
PD11818   PD        0.588824    0.500588    0.677059     0.005394
PD11819   PD        0.618235    0.471176    0.677059     0.005394
PD11820   PD        0.618235    0.500588    0.647647     0.005394
PD11821   PD        0.647647    0.471176    0.647647     0.005394
AU11822   AU        0.647647    0.500588    0.677059     0.007504
AU11823   AU        0.677059    0.471176    0.677059     0.007504
AU11824   AU        0.677059    0.500588    0.647647     0.007504
PD11825   PD        0.706471    0.471176    0.647647     0.005394
AU11826   AU        0.706471    0.500588    0.677059     0.007504
AU11827   AU        0.735882    0.471176    0.677059     0.007504
AU11828   AU        0.735882    0.500588    0.647647     0.007504
PD11829   PD        0.765294    0.471176    0.647647     0.005394
PD11830   PD        0.765294    0.500588    0.677059     0.005394
PD11853   PD        0.177059    0.530000    0.647647     0.005394
AU11855   AU        0.206471    0.530000    0.677059     0.007504
AU11856   AU        0.206471    0.559412    0.647647     0.007504
PD11857   PD        0.235882    0.530000    0.647647     0.005394
PD11858   PD        0.235882    0.559412    0.677059     0.005394
AU11859   AU        0.265294    0.530000    0.677059     0.007504
AU11860   AU        0.265294    0.559412    0.647647     0.007504
AU11861   AU        0.294706    0.530000    0.647647     0.007504
PD11862   PD        0.294706    0.559412    0.677059     0.005394
PD11863   PD        0.324118    0.530000    0.677059     0.005394
PD11864   PD        0.324118    0.559412    0.647647     0.005394
PD11865   PD        0.353529    0.530000    0.647647     0.005394
AU11866   AU        0.353529    0.559412    0.677059     0.007504
AU11867   AU        0.382941    0.530000    0.677059     0.007504
AU11868   AU        0.382941    0.559412    0.647647     0.007504
AU11869   AU        0.412353    0.530000    0.647647     0.007504
AU11870   AU        0.412353    0.559412    0.677059     0.007504
AU11871   AU        0.441765    0.530000    0.677059     0.007504
AU11872   AU        0.441765    0.559412    0.647647     0.007504
PD11873   PD        0.471176    0.530000    0.647647     0.005394
AU11874   AU        0.471176    0.559412    0.677059     0.007504
AU11875   AU        0.500588    0.530000    0.677059     0.007504
PD11876   PD        0.500588    0.559412    0.647647     0.005394
AU11877   AU        0.530000    0.530000    0.647647     0.007504
PD11878   PD        0.530000    0.559412    0.677059     0.005394
AU11879   AU        0.559412    0.530000    0.677059     0.007504
PD11880   PD        0.559412    0.559412    0.647647     0.005394
AU11881   AU        0.588824    0.530000    0.647647     0.007504
AU11882   AU        0.588824    0.559412    0.677059     0.007504
AU11883   AU        0.618235    0.530000    0.677059     0.007504
AU11884   AU        0.618235    0.559412    0.647647     0.007504
PD11885   PD        0.647647    0.530000    0.647647     0.005394
PD11886   PD        0.647647    0.559412    0.677059     0.005394
PD11887   PD        0.677059    0.530000    0.677059     0.005394
AU11888   AU        0.677059    0.559412    0.647647     0.007504
PD11889   PD        0.706471    0.530000    0.647647     0.005394
AU11890   AU        0.706471    0.559412    0.677059     0.007504
AU11891   AU        0.735882    0.530000    0.677059     0.007504
PD11892   PD        0.735882    0.559412    0.647647     0.005394
PD11893   PD        0.765294    0.530000    0.647647     0.005394
PD11919   PD        0.206471    0.588824    0.677059     0.005394
PD11920   PD        0.206471    0.618235    0.647647     0.005394
AU11921   AU        0.235882    0.588824    0.647647     0.007504
AU11922   AU        0.235882    0.618235    0.677059     0.007504
AU11923   AU        0.265294    0.588824    0.677059     0.007504
PD11924   PD        0.265294    0.618235    0.647647     0.005394
AU11925   AU        0.294706    0.588824    0.647647     0.007504
AU11926   AU        0.294706    0.618235    0.677059     0.007504
PD11927   PD        0.324118    0.588824    0.677059     0.005394
PD11928   PD        0.324118    0.618235    0.647647     0.005394
PD11929   PD        0.353529    0.588824    0.647647     0.005394
AU11930   AU        0.353529    0.618235    0.677059     0.007504
PD11931   PD        0.382941    0.588824    0.677059     0.005394
AU11932   AU        0.382941    0.618235    0.647647     0.007504
AU11933   AU        0.412353    0.588824    0.647647     0.007504
AU11934   AU        0.412353    0.618235    0.677059     0.007504
PD11935   PD        0.441765    0.588824    0.677059     0.005394
AU11936   AU        0.441765    0.618235    0.647647     0.007504
PD11937   PD        0.471176    0.588824    0.647647     0.005394
AU11938   AU        0.471176    0.618235    0.677059     0.007504
PD11939   PD        0.500588    0.588824    0.677059     0.005394
AU11940   AU        0.500588    0.618235    0.647647     0.007504
AU11941   AU        0.530000    0.588824    0.647647     0.007504
PD11942   PD        0.530000    0.618235    0.677059     0.005394
PD11943   PD        0.559412    0.588824    0.677059     0.005394
PD11944   PD        0.559412    0.618235    0.647647     0.005394
PD11945   PD        0.588824    0.588824    0.647647     0.005394
PD11946   PD        0.588824    0.618235    0.677059     0.005394
PD11947   PD        0.618235    0.588824    0.677059     0.005394
AU11948   AU        0.618235    0.618235    0.647647     0.007504
AU11949   AU        0.647647    0.588824    0.647647     0.007504
PD11950   PD        0.647647    0.618235    0.677059     0.005394
AU11951   AU        0.677059    0.588824    0.677059     0.007504
AU11952   AU        0.677059    0.618235    0.647647     0.007504
PD11953   PD        0.706471    0.588824    0.647647     0.005394
PD11954   PD        0.706471    0.618235    0.677059     0.005394
AU11955   AU        0.735882    0.588824    0.677059     0.007504
AU11956   AU        0.735882    0.618235    0.647647     0.007504
PD11985   PD        0.235882    0.647647    0.647647     0.005394
PD11987   PD        0.265294    0.647647    0.677059     0.005394
PD11988   PD        0.265294    0.677059    0.647647     0.005394
AU11989   AU        0.294706    0.647647    0.647647     0.007504
PD11990   PD        0.294706    0.677059    0.677059     0.005394
AU11991   AU        0.324118    0.647647    0.677059     0.007504
PD11992   PD        0.324118    0.677059    0.647647     0.005394
PD11993   PD        0.353529    0.647647    0.647647     0.005394
PD11994   PD        0.353529    0.677059    0.677059     0.005394
PD11995   PD        0.382941    0.647647    0.677059     0.005394
PD11996   PD        0.382941    0.677059    0.647647     0.005394
PD11997   PD        0.412353    0.647647    0.647647     0.005394
PD11998   PD        0.412353    0.677059    0.677059     0.005394
AU11999   AU        0.441765    0.647647    0.677059     0.007504
AU12000   AU        0.441765    0.677059    0.647647     0.007504
PD12001   PD        0.471176    0.647647    0.647647     0.005394
PD12002   PD        0.471176    0.677059    0.677059     0.005394
AU12003   AU        0.500588    0.647647    0.677059     0.007504
PD12004   PD        0.500588    0.677059    0.647647     0.005394
AU12005   AU        0.530000    0.647647    0.647647     0.007504
PD12006   PD        0.530000    0.677059    0.677059     0.005394
PD12007   PD        0.559412    0.647647    0.677059     0.005394
AU12008   AU        0.559412    0.677059    0.647647     0.007504
PD12009   PD        0.588824    0.647647    0.647647     0.005394
PD12010   PD        0.588824    0.677059    0.677059     0.005394
PD12011   PD        0.618235    0.647647    0.677059     0.005394
PD12012   PD        0.618235    0.677059    0.647647     0.005394
AU12013   AU        0.647647    0.647647    0.647647     0.007504
PD12014   PD        0.647647    0.677059    0.677059     0.005394
PD12015   PD        0.677059    0.647647    0.677059     0.005394
AU12016   AU        0.677059    0.677059    0.647647     0.007504
PD12017   PD        0.706471    0.647647    0.647647     0.005394
PD12053   PD        0.294706    0.706471    0.647647     0.005394
AU12055   AU        0.324118    0.706471    0.677059     0.007504
AU12056   AU        0.324118    0.735882    0.647647     0.007504
AU12057   AU        0.353529    0.706471    0.647647     0.007504
AU12058   AU        0.353529    0.735882    0.677059     0.007504
AU12059   AU        0.382941    0.706471    0.677059     0.007504
AU12060   AU        0.382941    0.735882    0.647647     0.007504
AU12061   AU        0.412353    0.706471    0.647647     0.007504
AU12062   AU        0.412353    0.735882    0.677059     0.007504
PD12063   PD        0.441765    0.706471    0.677059     0.005394
PD12064   PD        0.441765    0.735882    0.647647     0.005394
AU12065   AU        0.471176    0.706471    0.647647     0.007504
PD12066   PD        0.471176    0.735882    0.677059     0.005394
AU12067   AU        0.500588    0.706471    0.677059     0.007504
AU12068   AU        0.500588    0.735882    0.647647     0.007504
PD12069   PD        0.530000    0.706471    0.647647     0.005394
PD12070   PD        0.530000    0.735882    0.677059     0.005394
PD12071   PD        0.559412    0.706471    0.677059     0.005394
AU12072   AU        0.559412    0.735882    0.647647     0.007504
AU12073   AU        0.588824    0.706471    0.647647     0.007504
PD12074   PD        0.588824    0.735882    0.677059     0.005394
AU12075   AU        0.618235    0.706471    0.677059     0.007504
AU12076   AU        0.618235    0.735882    0.647647     0.007504
AU12077   AU        0.647647    0.706471    0.647647     0.007504
PD12125   PD        0.412353    0.765294    0.647647     0.005394
AU12127   AU        0.441765    0.765294    0.677059     0.007504
AU12129   AU        0.471176    0.765294    0.647647     0.007504
AU12131   AU        0.500588    0.765294    0.677059     0.007504
PD12133   PD        0.530000    0.765294    0.647647     0.005394
PD12512   PD        0.441765    0.206471    0.706471     0.005394
PD12516   PD        0.500588    0.206471    0.706471     0.005394
PD12568   PD        0.324118    0.265294    0.706471     0.005394
AU12569   AU        0.353529    0.235882    0.706471     0.007504
AU12570   AU        0.353529    0.265294    0.735882     0.007504
AU12572   AU        0.382941    0.265294    0.706471     0.007504
AU12573   AU        0.412353    0.235882    0.706471     0.007504
PD12574   PD        0.412353    0.265294    0.735882     0.005394
PD12575   PD        0.441765    0.235882    0.735882     0.005394
AU12576   AU        0.441765    0.265294    0.706471     0.007504
AU12577   AU        0.471176    0.235882    0.706471     0.007504
PD12578   PD        0.471176    0.265294    0.735882     0.005394
PD12579   PD        0.500588    0.235882    0.735882     0.005394
AU12580   AU        0.500588    0.265294    0.706471     0.007504
AU12581   AU        0.530000    0.235882    0.706471     0.007504
PD12582   PD        0.530000    0.265294    0.735882     0.005394
AU12584   AU        0.559412    0.265294    0.706471     0.007504
PD12585   PD        0.588824    0.235882    0.706471     0.005394
AU12586   AU        0.588824    0.265294    0.735882     0.007504
AU12588   AU        0.618235    0.265294    0.706471     0.007504
AU12628   AU        0.265294    0.324118    0.706471     0.007504
AU12629   AU        0.294706    0.294706    0.706471     0.007504
AU12630   AU        0.294706    0.324118    0.735882     0.007504
PD12631   PD        0.324118    0.294706    0.735882     0.005394
AU12632   AU        0.324118    0.324118    0.706471     0.007504
AU12633   AU        0.353529    0.294706    0.706471     0.007504
AU12634   AU        0.353529    0.324118    0.735882     0.007504
PD12635   PD        0.382941    0.294706    0.735882     0.005394
AU12636   AU        0.382941    0.324118    0.706471     0.007504
AU12637   AU        0.412353    0.294706    0.706471     0.007504
PD12638   PD        0.412353    0.324118    0.735882     0.005394
AU12639   AU        0.441765    0.294706    0.735882     0.007504
PD12640   PD        0.441765    0.324118    0.706471     0.005394
PD12641   PD        0.471176    0.294706    0.706471     0.005394
PD12642   PD        0.471176    0.324118    0.735882     0.005394
AU12643   AU        0.500588    0.294706    0.735882     0.007504
PD12644   PD        0.500588    0.324118    0.706471     0.005394
PD12645   PD        0.530000    0.294706    0.706471     0.005394
PD12646   PD        0.530000    0.324118    0.735882     0.005394
PD12647   PD        0.559412    0.294706    0.735882     0.005394
PD12648   PD        0.559412    0.324118    0.706471     0.005394
PD12649   PD        0.588824    0.294706    0.706471     0.005394
PD12650   PD        0.588824    0.324118    0.735882     0.005394
PD12651   PD        0.618235    0.294706    0.735882     0.005394
AU12652   AU        0.618235    0.324118    0.706471     0.007504
PD12653   PD        0.647647    0.294706    0.706471     0.005394
AU12654   AU        0.647647    0.324118    0.735882     0.007504
AU12656   AU        0.677059    0.324118    0.706471     0.007504
AU12689   AU        0.235882    0.353529    0.706471     0.007504
PD12691   PD        0.265294    0.353529    0.735882     0.005394
AU12692   AU        0.265294    0.382941    0.706471     0.007504
AU12693   AU        0.294706    0.353529    0.706471     0.007504
PD12694   PD        0.294706    0.382941    0.735882     0.005394
PD12695   PD        0.324118    0.353529    0.735882     0.005394
AU12696   AU        0.324118    0.382941    0.706471     0.007504
PD12697   PD        0.353529    0.353529    0.706471     0.005394
AU12698   AU        0.353529    0.382941    0.735882     0.007504
PD12699   PD        0.382941    0.353529    0.735882     0.005394
AU12700   AU        0.382941    0.382941    0.706471     0.007504
PD12701   PD        0.412353    0.353529    0.706471     0.005394
PD12702   PD        0.412353    0.382941    0.735882     0.005394
AU12703   AU        0.441765    0.353529    0.735882     0.007504
PD12704   PD        0.441765    0.382941    0.706471     0.005394
PD12705   PD        0.471176    0.353529    0.706471     0.005394
PD12706   PD        0.471176    0.382941    0.735882     0.005394
AU12707   AU        0.500588    0.353529    0.735882     0.007504
AU12708   AU        0.500588    0.382941    0.706471     0.007504
PD12709   PD        0.530000    0.353529    0.706471     0.005394
AU12710   AU        0.530000    0.382941    0.735882     0.007504
AU12711   AU        0.559412    0.353529    0.735882     0.007504
PD12712   PD        0.559412    0.382941    0.706471     0.005394
AU12713   AU        0.588824    0.353529    0.706471     0.007504
AU12714   AU        0.588824    0.382941    0.735882     0.007504
PD12715   PD        0.618235    0.353529    0.735882     0.005394
AU12716   AU        0.618235    0.382941    0.706471     0.007504
AU12717   AU        0.647647    0.353529    0.706471     0.007504
PD12718   PD        0.647647    0.382941    0.735882     0.005394
AU12719   AU        0.677059    0.353529    0.735882     0.007504
PD12720   PD        0.677059    0.382941    0.706471     0.005394
PD12721   PD        0.706471    0.353529    0.706471     0.005394
PD12752   PD        0.206471    0.441765    0.706471     0.005394
PD12753   PD        0.235882    0.412353    0.706471     0.005394
PD12754   PD        0.235882    0.441765    0.735882     0.005394
PD12755   PD        0.265294    0.412353    0.735882     0.005394
PD12756   PD        0.265294    0.441765    0.706471     0.005394
PD12757   PD        0.294706    0.412353    0.706471     0.005394
AU12758   AU        0.294706    0.441765    0.735882     0.007504
PD12759   PD        0.324118    0.412353    0.735882     0.005394
PD12760   PD        0.324118    0.441765    0.706471     0.005394
AU12761   AU        0.353529    0.412353    0.706471     0.007504
AU12762   AU        0.353529    0.441765    0.735882     0.007504
PD12763   PD        0.382941    0.412353    0.735882     0.005394
PD12764   PD        0.382941    0.441765    0.706471     0.005394
PD12765   PD        0.412353    0.412353    0.706471     0.005394
AU12766   AU        0.412353    0.441765    0.735882     0.007504
AU12767   AU        0.441765    0.412353    0.735882     0.007504
PD12768   PD        0.441765    0.441765    0.706471     0.005394
AU12769   AU        0.471176    0.412353    0.706471     0.007504
PD12770   PD        0.471176    0.441765    0.735882     0.005394
PD12771   PD        0.500588    0.412353    0.735882     0.005394
AU12772   AU        0.500588    0.441765    0.706471     0.007504
PD12773   PD        0.530000    0.412353    0.706471     0.005394
AU12774   AU        0.530000    0.441765    0.735882     0.007504
AU12775   AU        0.559412    0.412353    0.735882     0.007504
PD12776   PD        0.559412    0.441765    0.706471     0.005394
AU12777   AU        0.588824    0.412353    0.706471     0.007504
PD12778   PD        0.588824    0.441765    0.735882     0.005394
PD12779   PD        0.618235    0.412353    0.735882     0.005394
AU12780   AU        0.618235    0.441765    0.706471     0.007504
AU12781   AU        0.647647    0.412353    0.706471     0.007504
AU12782   AU        0.647647    0.441765    0.735882     0.007504
PD12783   PD        0.677059    0.412353    0.735882     0.005394
AU12784   AU        0.677059    0.441765    0.706471     0.007504
PD12785   PD        0.706471    0.412353    0.706471     0.005394
AU12786   AU        0.706471    0.441765    0.735882     0.007504
PD12788   PD        0.735882    0.441765    0.706471     0.005394
AU12816   AU        0.206471    0.500588    0.706471     0.007504
PD12817   PD        0.235882    0.471176    0.706471     0.005394
AU12818   AU        0.235882    0.500588    0.735882     0.007504
PD12819   PD        0.265294    0.471176    0.735882     0.005394
PD12820   PD        0.265294    0.500588    0.706471     0.005394
AU12821   AU        0.294706    0.471176    0.706471     0.007504
AU12822   AU        0.294706    0.500588    0.735882     0.007504
PD12823   PD        0.324118    0.471176    0.735882     0.005394
AU12824   AU        0.324118    0.500588    0.706471     0.007504
PD12825   PD        0.353529    0.471176    0.706471     0.005394
PD12826   PD        0.353529    0.500588    0.735882     0.005394
PD12827   PD        0.382941    0.471176    0.735882     0.005394
PD12828   PD        0.382941    0.500588    0.706471     0.005394
AU12829   AU        0.412353    0.471176    0.706471     0.007504
AU12830   AU        0.412353    0.500588    0.735882     0.007504
AU12831   AU        0.441765    0.471176    0.735882     0.007504
PD12832   PD        0.441765    0.500588    0.706471     0.005394
AU12833   AU        0.471176    0.471176    0.706471     0.007504
AU12834   AU        0.471176    0.500588    0.735882     0.007504
AU12835   AU        0.500588    0.471176    0.735882     0.007504
PD12836   PD        0.500588    0.500588    0.706471     0.005394
PD12837   PD        0.530000    0.471176    0.706471     0.005394
AU12838   AU        0.530000    0.500588    0.735882     0.007504
PD12839   PD        0.559412    0.471176    0.735882     0.005394
PD12840   PD        0.559412    0.500588    0.706471     0.005394
PD12841   PD        0.588824    0.471176    0.706471     0.005394
PD12842   PD        0.588824    0.500588    0.735882     0.005394
AU12843   AU        0.618235    0.471176    0.735882     0.007504
AU12844   AU        0.618235    0.500588    0.706471     0.007504
PD12845   PD        0.647647    0.471176    0.706471     0.005394
AU12846   AU        0.647647    0.500588    0.735882     0.007504
PD12847   PD        0.677059    0.471176    0.735882     0.005394
PD12848   PD        0.677059    0.500588    0.706471     0.005394
AU12849   AU        0.706471    0.471176    0.706471     0.007504
PD12850   PD        0.706471    0.500588    0.735882     0.005394
AU12852   AU        0.735882    0.500588    0.706471     0.007504
AU12881   AU        0.235882    0.530000    0.706471     0.007504
PD12883   PD        0.265294    0.530000    0.735882     0.005394
AU12884   AU        0.265294    0.559412    0.706471     0.007504
AU12885   AU        0.294706    0.530000    0.706471     0.007504
PD12886   PD        0.294706    0.559412    0.735882     0.005394
AU12887   AU        0.324118    0.530000    0.735882     0.007504
PD12888   PD        0.324118    0.559412    0.706471     0.005394
AU12889   AU        0.353529    0.530000    0.706471     0.007504
PD12890   PD        0.353529    0.559412    0.735882     0.005394
AU12891   AU        0.382941    0.530000    0.735882     0.007504
PD12892   PD        0.382941    0.559412    0.706471     0.005394
PD12893   PD        0.412353    0.530000    0.706471     0.005394
AU12894   AU        0.412353    0.559412    0.735882     0.007504
AU12895   AU        0.441765    0.530000    0.735882     0.007504
PD12896   PD        0.441765    0.559412    0.706471     0.005394
AU12897   AU        0.471176    0.530000    0.706471     0.007504
PD12898   PD        0.471176    0.559412    0.735882     0.005394
AU12899   AU        0.500588    0.530000    0.735882     0.007504
AU12900   AU        0.500588    0.559412    0.706471     0.007504
AU12901   AU        0.530000    0.530000    0.706471     0.007504
AU12902   AU        0.530000    0.559412    0.735882     0.007504
AU12903   AU        0.559412    0.530000    0.735882     0.007504
PD12904   PD        0.559412    0.559412    0.706471     0.005394
PD12905   PD        0.588824    0.530000    0.706471     0.005394
PD12906   PD        0.588824    0.559412    0.735882     0.005394
AU12907   AU        0.618235    0.530000    0.735882     0.007504
AU12908   AU        0.618235    0.559412    0.706471     0.007504
PD12909   PD        0.647647    0.530000    0.706471     0.005394
AU12910   AU        0.647647    0.559412    0.735882     0.007504
AU12911   AU        0.677059    0.530000    0.735882     0.007504
PD12912   PD        0.677059    0.559412    0.706471     0.005394
AU12913   AU        0.706471    0.530000    0.706471     0.007504
AU12945   AU        0.235882    0.588824    0.706471     0.007504
PD12947   PD        0.265294    0.588824    0.735882     0.005394
PD12948   PD        0.265294    0.618235    0.706471     0.005394
AU12949   AU        0.294706    0.588824    0.706471     0.007504
PD12950   PD        0.294706    0.618235    0.735882     0.005394
PD12951   PD        0.324118    0.588824    0.735882     0.005394
AU12952   AU        0.324118    0.618235    0.706471     0.007504
PD12953   PD        0.353529    0.588824    0.706471     0.005394
AU12954   AU        0.353529    0.618235    0.735882     0.007504
AU12955   AU        0.382941    0.588824    0.735882     0.007504
PD12956   PD        0.382941    0.618235    0.706471     0.005394
AU12957   AU        0.412353    0.588824    0.706471     0.007504
PD12958   PD        0.412353    0.618235    0.735882     0.005394
PD12959   PD        0.441765    0.588824    0.735882     0.005394
AU12960   AU        0.441765    0.618235    0.706471     0.007504
PD12961   PD        0.471176    0.588824    0.706471     0.005394
AU12962   AU        0.471176    0.618235    0.735882     0.007504
PD12963   PD        0.500588    0.588824    0.735882     0.005394
PD12964   PD        0.500588    0.618235    0.706471     0.005394
PD12965   PD        0.530000    0.588824    0.706471     0.005394
PD12966   PD        0.530000    0.618235    0.735882     0.005394
PD12967   PD        0.559412    0.588824    0.735882     0.005394
PD12968   PD        0.559412    0.618235    0.706471     0.005394
AU12969   AU        0.588824    0.588824    0.706471     0.007504
AU12970   AU        0.588824    0.618235    0.735882     0.007504
PD12971   PD        0.618235    0.588824    0.735882     0.005394
AU12972   AU        0.618235    0.618235    0.706471     0.007504
AU12973   AU        0.647647    0.588824    0.706471     0.007504
AU12974   AU        0.647647    0.618235    0.735882     0.007504
PD12975   PD        0.677059    0.588824    0.735882     0.005394
AU12976   AU        0.677059    0.618235    0.706471     0.007504
PD12977   PD        0.706471    0.588824    0.706471     0.005394
AU13013   AU        0.294706    0.647647    0.706471     0.007504
AU13015   AU        0.324118    0.647647    0.735882     0.007504
PD13016   PD        0.324118    0.677059    0.706471     0.005394
PD13017   PD        0.353529    0.647647    0.706471     0.005394
AU13018   AU        0.353529    0.677059    0.735882     0.007504
AU13019   AU        0.382941    0.647647    0.735882     0.007504
PD13020   PD        0.382941    0.677059    0.706471     0.005394
PD13021   PD        0.412353    0.647647    0.706471     0.005394
PD13022   PD        0.412353    0.677059    0.735882     0.005394
AU13023   AU        0.441765    0.647647    0.735882     0.007504
PD13024   PD        0.441765    0.677059    0.706471     0.005394
AU13025   AU        0.471176    0.647647    0.706471     0.007504
PD13026   PD        0.471176    0.677059    0.735882     0.005394
PD13027   PD        0.500588    0.647647    0.735882     0.005394
AU13028   AU        0.500588    0.677059    0.706471     0.007504
AU13029   AU        0.530000    0.647647    0.706471     0.007504
AU13030   AU        0.530000    0.677059    0.735882     0.007504
PD13031   PD        0.559412    0.647647    0.735882     0.005394
AU13032   AU        0.559412    0.677059    0.706471     0.007504
PD13033   PD        0.588824    0.647647    0.706471     0.005394
PD13034   PD        0.588824    0.677059    0.735882     0.005394
AU13035   AU        0.618235    0.647647    0.735882     0.007504
PD13036   PD        0.618235    0.677059    0.706471     0.005394
PD13037   PD        0.647647    0.647647    0.706471     0.005394
AU13081   AU        0.353529    0.706471    0.706471     0.007504
AU13085   AU        0.412353    0.706471    0.706471     0.007504
AU13087   AU        0.441765    0.706471    0.735882     0.007504
PD13088   PD        0.441765    0.735882    0.706471     0.005394
AU13089   AU        0.471176    0.706471    0.706471     0.007504
PD13091   PD        0.500588    0.706471    0.735882     0.005394
AU13092   AU        0.500588    0.735882    0.706471     0.007504
AU13093   AU        0.530000    0.706471    0.706471     0.007504
PD13097   PD        0.588824    0.706471    0.706471     0.005394
PD13600   PD        0.441765    0.265294    0.765294     0.005394
PD13604   PD        0.500588    0.265294    0.765294     0.005394
PD13656   PD        0.324118    0.324118    0.765294     0.005394
AU13660   AU        0.382941    0.324118    0.765294     0.007504
PD13661   PD        0.412353    0.294706    0.765294     0.005394
PD13662   PD        0.412353    0.324118    0.794706     0.005394
PD13664   PD        0.441765    0.324118    0.765294     0.005394
AU13665   AU        0.471176    0.294706    0.765294     0.007504
AU13666   AU        0.471176    0.324118    0.794706     0.007504
AU13668   AU        0.500588    0.324118    0.765294     0.007504
PD13669   PD        0.530000    0.294706    0.765294     0.005394
PD13670   PD        0.530000    0.324118    0.794706     0.005394
PD13672   PD        0.559412    0.324118    0.765294     0.005394
AU13676   AU        0.618235    0.324118    0.765294     0.007504
PD13720   PD        0.324118    0.382941    0.765294     0.005394
AU13721   AU        0.353529    0.353529    0.765294     0.007504
PD13722   PD        0.353529    0.382941    0.794706     0.005394
PD13723   PD        0.382941    0.353529    0.794706     0.005394
AU13724   AU        0.382941    0.382941    0.765294     0.007504
AU13725   AU        0.412353    0.353529    0.765294     0.007504
AU13726   AU        0.412353    0.382941    0.794706     0.007504
AU13727   AU        0.441765    0.353529    0.794706     0.007504
AU13728   AU        0.441765    0.382941    0.765294     0.007504
AU13729   AU        0.471176    0.353529    0.765294     0.007504
AU13730   AU        0.471176    0.382941    0.794706     0.007504
AU13731   AU        0.500588    0.353529    0.794706     0.007504
AU13732   AU        0.500588    0.382941    0.765294     0.007504
PD13733   PD        0.530000    0.353529    0.765294     0.005394
AU13734   AU        0.530000    0.382941    0.794706     0.007504
AU13735   AU        0.559412    0.353529    0.794706     0.007504
PD13736   PD        0.559412    0.382941    0.765294     0.005394
PD13737   PD        0.588824    0.353529    0.765294     0.005394
PD13738   PD        0.588824    0.382941    0.794706     0.005394
PD13740   PD        0.618235    0.382941    0.765294     0.005394
AU13780   AU        0.265294    0.441765    0.765294     0.007504
AU13781   AU        0.294706    0.412353    0.765294     0.007504
AU13783   AU        0.324118    0.412353    0.794706     0.007504
PD13784   PD        0.324118    0.441765    0.765294     0.005394
AU13785   AU        0.353529    0.412353    0.765294     0.007504
PD13786   PD        0.353529    0.441765    0.794706     0.005394
AU13787   AU        0.382941    0.412353    0.794706     0.007504
AU13788   AU        0.382941    0.441765    0.765294     0.007504
AU13789   AU        0.412353    0.412353    0.765294     0.007504
PD13790   PD        0.412353    0.441765    0.794706     0.005394
PD13791   PD        0.441765    0.412353    0.794706     0.005394
PD13792   PD        0.441765    0.441765    0.765294     0.005394
PD13793   PD        0.471176    0.412353    0.765294     0.005394
PD13794   PD        0.471176    0.441765    0.794706     0.005394
PD13795   PD        0.500588    0.412353    0.794706     0.005394
PD13796   PD        0.500588    0.441765    0.765294     0.005394
AU13797   AU        0.530000    0.412353    0.765294     0.007504
PD13798   PD        0.530000    0.441765    0.794706     0.005394
AU13799   AU        0.559412    0.412353    0.794706     0.007504
PD13800   PD        0.559412    0.441765    0.765294     0.005394
PD13801   PD        0.588824    0.412353    0.765294     0.005394
PD13802   PD        0.588824    0.441765    0.794706     0.005394
AU13803   AU        0.618235    0.412353    0.794706     0.007504
AU13804   AU        0.618235    0.441765    0.765294     0.007504
PD13805   PD        0.647647    0.412353    0.765294     0.005394
AU13808   AU        0.677059    0.441765    0.765294     0.007504
PD13844   PD        0.265294    0.500588    0.765294     0.005394
PD13845   PD        0.294706    0.471176    0.765294     0.005394
AU13847   AU        0.324118    0.471176    0.794706     0.007504
PD13848   PD        0.324118    0.500588    0.765294     0.005394
PD13849   PD        0.353529    0.471176    0.765294     0.005394
PD13850   PD        0.353529    0.500588    0.794706     0.005394
PD13851   PD        0.382941    0.471176    0.794706     0.005394
AU13852   AU        0.382941    0.500588    0.765294     0.007504
AU13853   AU        0.412353    0.471176    0.765294     0.007504
PD13854   PD        0.412353    0.500588    0.794706     0.005394
PD13855   PD        0.441765    0.471176    0.794706     0.005394
PD13856   PD        0.441765    0.500588    0.765294     0.005394
PD13857   PD        0.471176    0.471176    0.765294     0.005394
AU13858   AU        0.471176    0.500588    0.794706     0.007504
PD13859   PD        0.500588    0.471176    0.794706     0.005394
PD13860   PD        0.500588    0.500588    0.765294     0.005394
PD13861   PD        0.530000    0.471176    0.765294     0.005394
AU13862   AU        0.530000    0.500588    0.794706     0.007504
AU13863   AU        0.559412    0.471176    0.794706     0.007504
PD13864   PD        0.559412    0.500588    0.765294     0.005394
PD13865   PD        0.588824    0.471176    0.765294     0.005394
PD13866   PD        0.588824    0.500588    0.794706     0.005394
PD13867   PD        0.618235    0.471176    0.794706     0.005394
PD13868   PD        0.618235    0.500588    0.765294     0.005394
AU13869   AU        0.647647    0.471176    0.765294     0.007504
AU13872   AU        0.677059    0.500588    0.765294     0.007504
PD13909   PD        0.294706    0.530000    0.765294     0.005394
AU13911   AU        0.324118    0.530000    0.794706     0.007504
AU13912   AU        0.324118    0.559412    0.765294     0.007504
AU13913   AU        0.353529    0.530000    0.765294     0.007504
PD13914   PD        0.353529    0.559412    0.794706     0.005394
AU13915   AU        0.382941    0.530000    0.794706     0.007504
PD13916   PD        0.382941    0.559412    0.765294     0.005394
PD13917   PD        0.412353    0.530000    0.765294     0.005394
PD13918   PD        0.412353    0.559412    0.794706     0.005394
PD13919   PD        0.441765    0.530000    0.794706     0.005394
PD13920   PD        0.441765    0.559412    0.765294     0.005394
AU13921   AU        0.471176    0.530000    0.765294     0.007504
AU13922   AU        0.471176    0.559412    0.794706     0.007504
AU13923   AU        0.500588    0.530000    0.794706     0.007504
AU13924   AU        0.500588    0.559412    0.765294     0.007504
AU13925   AU        0.530000    0.530000    0.765294     0.007504
AU13926   AU        0.530000    0.559412    0.794706     0.007504
AU13927   AU        0.559412    0.530000    0.794706     0.007504
AU13928   AU        0.559412    0.559412    0.765294     0.007504
PD13929   PD        0.588824    0.530000    0.765294     0.005394
AU13930   AU        0.588824    0.559412    0.794706     0.007504
AU13931   AU        0.618235    0.530000    0.794706     0.007504
AU13932   AU        0.618235    0.559412    0.765294     0.007504
PD13933   PD        0.647647    0.530000    0.765294     0.005394
AU13976   AU        0.324118    0.618235    0.765294     0.007504
PD13977   PD        0.353529    0.588824    0.765294     0.005394
AU13979   AU        0.382941    0.588824    0.794706     0.007504
AU13980   AU        0.382941    0.618235    0.765294     0.007504
PD13981   PD        0.412353    0.588824    0.765294     0.005394
PD13982   PD        0.412353    0.618235    0.794706     0.005394
PD13983   PD        0.441765    0.588824    0.794706     0.005394
AU13984   AU        0.441765    0.618235    0.765294     0.007504
AU13985   AU        0.471176    0.588824    0.765294     0.007504
PD13986   PD        0.471176    0.618235    0.794706     0.005394
PD13987   PD        0.500588    0.588824    0.794706     0.005394
PD13988   PD        0.500588    0.618235    0.765294     0.005394
AU13989   AU        0.530000    0.588824    0.765294     0.007504
AU13990   AU        0.530000    0.618235    0.794706     0.007504
PD13991   PD        0.559412    0.588824    0.794706     0.005394
AU13992   AU        0.559412    0.618235    0.765294     0.007504
PD13993   PD        0.588824    0.588824    0.765294     0.005394
AU13996   AU        0.618235    0.618235    0.765294     0.007504
PD14045   PD        0.412353    0.647647    0.765294     0.005394
PD14048   PD        0.441765    0.677059    0.765294     0.005394
AU14049   AU        0.471176    0.647647    0.765294     0.007504
PD14052   PD        0.500588    0.677059    0.765294     0.005394
PD14053   PD        0.530000    0.647647    0.765294     0.005394
PD14816   PD        0.441765    0.441765    0.824118     0.005394
PD14817   PD        0.471176    0.412353    0.824118     0.005394
PD14820   PD        0.500588    0.441765    0.824118     0.005394
PD14877   PD        0.412353    0.471176    0.824118     0.005394
PD14880   PD        0.441765    0.500588    0.824118     0.005394
PD14881   PD        0.471176    0.471176    0.824118     0.005394
PD14884   PD        0.500588    0.500588    0.824118     0.005394
PD14885   PD        0.530000    0.471176    0.824118     0.005394
AU14945   AU        0.471176    0.530000    0.824118     0.007504
