data_00001
_audit_creation_method   'DISCUS'

_data_chemical_name_common 'Au.cell: Pearson 85'

_cell_length_a             61.1835
_cell_length_b             57.1046
_cell_length_c             65.2624
_cell_angle_alpha     90.0000
_cell_angle_beta      90.0000
_cell_angle_gamma     90.0000

_symmetry_space_group_name_H-M   'P1              '

loop_
_atom_site_label
_atom_site_symbol
_atom_site_fract_x
_atom_site_fract_y
_atom_site_fract_z
_atom_site_u_iso_or_equiv
PD1   PD        0.366795    0.251931    0.064144     0.005394
PD2   PD        0.438900    0.252795    0.068576     0.005394
AU3   AU        0.502581    0.249874    0.066274     0.007504
PD4   PD        0.305981    0.325264    0.064715     0.005394
PD5   PD        0.335998    0.290069    0.063233     0.005394
PD6   PD        0.368748    0.320513    0.067601     0.005394
PD7   PD        0.402494    0.285615    0.068020     0.005394
PD8   PD        0.432909    0.319003    0.063576     0.005394
PD9   PD        0.471275    0.284755    0.064986     0.005394
PD10   PD        0.501466    0.323921    0.064360     0.005394
PD11   PD        0.535999    0.286529    0.066110     0.005394
AU12   AU        0.567614    0.324350    0.067865     0.007504
PD13   PD        0.268598    0.398180    0.035457     0.005394
AU14   AU        0.302804    0.394773    0.065839     0.007504
AU15   AU        0.339181    0.359992    0.065354     0.007504
AU16   AU        0.369242    0.398822    0.066353     0.007504
PD17   PD        0.401708    0.360587    0.063614     0.005394
PD18   PD        0.399310    0.393850    0.032849     0.005394
PD19   PD        0.473176    0.355788    0.003233     0.005394
PD20   PD        0.435739    0.394538    0.066666     0.005394
AU21   AU        0.468590    0.357113    0.067100     0.007504
PD22   PD        0.470817    0.391300    0.036151     0.005394
AU23   AU        0.501622    0.394746    0.065671     0.007504
PD24   PD        0.536221    0.361735    0.065450     0.005394
PD25   PD        0.570736    0.394564    0.066705     0.005394
PD26   PD        0.602810    0.358481    0.069058     0.005394
AU27   AU        0.308517    0.427132    0.032991     0.007504
AU28   AU        0.300011    0.461480    0.064471     0.007504
AU29   AU        0.335822    0.433016    0.066324     0.007504
PD30   PD        0.368226    0.432050    0.032255     0.005394
AU31   AU        0.368530    0.466700    0.065847     0.007504
AU32   AU        0.403050    0.429695    0.067473     0.007504
PD33   PD        0.400991    0.505102    0.000625     0.005394
PD34   PD        0.436307    0.429002    0.038553     0.005394
AU35   AU        0.436389    0.465555    0.068119     0.007504
AU36   AU        0.469582    0.429021    0.067358     0.007504
AU37   AU        0.467713    0.464614    0.035937     0.007504
PD38   PD        0.503458    0.428280    0.034102     0.005394
AU39   AU        0.500797    0.465155    0.064478     0.007504
AU40   AU        0.535689    0.434068    0.064730     0.007504
PD41   PD        0.568545    0.469666    0.065616     0.005394
PD42   PD        0.601802    0.431782    0.065742     0.005394
PD43   PD        0.299361    0.459163    0.002294     0.005394
PD44   PD        0.300377    0.508477    0.035294     0.005394
PD45   PD        0.334628    0.499591    0.065146     0.005394
AU46   AU        0.371490    0.535616    0.066781     0.007504
PD47   PD        0.404130    0.498449    0.066687     0.005394
PD48   PD        0.403294    0.538149    0.034995     0.005394
AU49   AU        0.435987    0.533769    0.065381     0.007504
AU50   AU        0.468108    0.501002    0.063970     0.007504
PD51   PD        0.502031    0.537425    0.065536     0.005394
AU52   AU        0.534127    0.499845    0.065537     0.007504
PD53   PD        0.564933    0.537052    0.064285     0.005394
PD54   PD        0.599894    0.536379    0.033375     0.005394
PD55   PD        0.303534    0.602496    0.065691     0.005394
PD56   PD        0.367579    0.649502    0.034068     0.005394
AU57   AU        0.404391    0.572806    0.067520     0.007504
AU58   AU        0.439083    0.606407    0.065980     0.007504
PD59   PD        0.471122    0.571744    0.066832     0.005394
PD60   PD        0.502072    0.607935    0.064495     0.005394
AU61   AU        0.534336    0.572362    0.065393     0.007504
PD62   PD        0.306474    0.179933    0.127614     0.005394
PD63   PD        0.370557    0.179746    0.125284     0.005394
PD64   PD        0.401672    0.146465    0.128253     0.005394
PD65   PD        0.368239    0.147398    0.092884     0.005394
AU66   AU        0.436945    0.180364    0.131033     0.007504
PD67   PD        0.472371    0.147840    0.128872     0.005394
PD68   PD        0.466063    0.148793    0.057525     0.005394
PD69   PD        0.501726    0.185758    0.129867     0.005394
PD70   PD        0.557250    0.165064    0.094962     0.005394
PD71   PD        0.242264    0.258168    0.123881     0.005394
AU72   AU        0.269238    0.214423    0.127086     0.007504
PD73   PD        0.240142    0.245991    0.063096     0.005394
PD74   PD        0.302200    0.251690    0.128819     0.005394
AU75   AU        0.337810    0.217636    0.129802     0.007504
PD76   PD        0.338004    0.252303    0.097348     0.005394
AU77   AU        0.372557    0.217100    0.095276     0.007504
AU78   AU        0.370622    0.251089    0.128389     0.007504
PD79   PD        0.403142    0.212175    0.128922     0.005394
PD80   PD        0.403364    0.251054    0.099173     0.005394
PD81   PD        0.437759    0.218633    0.097967     0.005394
PD82   PD        0.433895    0.251154    0.129904     0.005394
AU83   AU        0.469041    0.218709    0.128420     0.007504
PD84   PD        0.471217    0.253294    0.099158     0.005394
AU85   AU        0.501692    0.213979    0.094467     0.007504
PD86   PD        0.505411    0.251947    0.128448     0.005394
PD87   PD        0.536973    0.216820    0.128131     0.005394
PD88   PD        0.532936    0.254171    0.096793     0.005394
PD89   PD        0.571223    0.253954    0.128007     0.005394
PD90   PD        0.606519    0.215291    0.127167     0.005394
PD91   PD        0.602811    0.252407    0.095214     0.005394
PD92   PD        0.674872    0.217478    0.130095     0.005394
PD93   PD        0.201174    0.326938    0.093783     0.005394
PD94   PD        0.235407    0.290884    0.096248     0.005394
PD95   PD        0.268047    0.288152    0.126315     0.005394
PD96   PD        0.272056    0.324144    0.095818     0.005394
PD97   PD        0.304329    0.288089    0.096250     0.005394
AU98   AU        0.302031    0.321637    0.126901     0.007504
AU99   AU        0.336087    0.285280    0.129015     0.007504
PD100   PD        0.337597    0.323130    0.098196     0.005394
PD101   PD        0.369777    0.287364    0.096545     0.005394
AU102   AU        0.369114    0.321684    0.127824     0.007504
PD103   PD        0.402464    0.287411    0.125776     0.005394
PD104   PD        0.403638    0.323353    0.094650     0.005394
AU105   AU        0.436911    0.285028    0.098282     0.007504
AU106   AU        0.435906    0.322102    0.127757     0.007504
PD107   PD        0.469312    0.285782    0.130504     0.005394
PD108   PD        0.468348    0.323057    0.095427     0.005394
PD109   PD        0.502093    0.286806    0.098292     0.005394
PD110   PD        0.502600    0.324440    0.128108     0.005394
PD111   PD        0.535347    0.286509    0.127114     0.005394
PD112   PD        0.535630    0.322716    0.097231     0.005394
AU113   AU        0.567620    0.289218    0.098560     0.007504
AU114   AU        0.568546    0.322474    0.127994     0.007504
PD115   PD        0.605028    0.286635    0.130152     0.005394
PD116   PD        0.601056    0.321746    0.096489     0.005394
PD117   PD        0.636341    0.320653    0.124762     0.005394
PD118   PD        0.736356    0.255680    0.159842     0.005394
PD119   PD        0.169616    0.390491    0.127711     0.005394
PD120   PD        0.203651    0.357447    0.125547     0.005394
PD121   PD        0.203364    0.395179    0.097971     0.005394
PD122   PD        0.239083    0.361811    0.095215     0.005394
AU123   AU        0.238302    0.393478    0.128417     0.007504
PD124   PD        0.271521    0.361149    0.129088     0.005394
PD125   PD        0.270040    0.395100    0.097293     0.005394
AU126   AU        0.302274    0.359123    0.096906     0.007504
PD127   PD        0.303063    0.393563    0.126254     0.005394
AU128   AU        0.335264    0.357262    0.126498     0.007504
AU129   AU        0.336178    0.395743    0.097716     0.007504
AU130   AU        0.369674    0.357680    0.096873     0.007504
PD131   PD        0.372486    0.392817    0.124837     0.005394
AU132   AU        0.404500    0.355649    0.127706     0.007504
PD133   PD        0.404116    0.392976    0.095920     0.005394
AU134   AU        0.435415    0.357029    0.096838     0.007504
PD135   PD        0.439015    0.393628    0.127005     0.005394
PD136   PD        0.471389    0.358534    0.126260     0.005394
PD137   PD        0.473105    0.397222    0.096301     0.005394
AU138   AU        0.501820    0.358173    0.096147     0.007504
AU139   AU        0.503915    0.394642    0.125809     0.007504
PD140   PD        0.535941    0.359824    0.129096     0.005394
PD141   PD        0.534751    0.390646    0.096119     0.005394
AU142   AU        0.570617    0.360557    0.096440     0.007504
AU143   AU        0.568924    0.395721    0.126544     0.007504
PD144   PD        0.602137    0.357392    0.129224     0.005394
PD145   PD        0.605172    0.396040    0.097842     0.005394
AU146   AU        0.635226    0.358513    0.099874     0.007504
PD147   PD        0.637292    0.393549    0.130094     0.005394
PD148   PD        0.670182    0.356489    0.129140     0.005394
PD149   PD        0.666681    0.393364    0.097822     0.005394
PD150   PD        0.702407    0.395000    0.127758     0.005394
PD151   PD        0.174742    0.462485    0.127085     0.005394
PD152   PD        0.206885    0.428896    0.128483     0.005394
PD153   PD        0.204789    0.463597    0.096626     0.005394
AU154   AU        0.237537    0.429247    0.097546     0.007504
AU155   AU        0.236983    0.466119    0.129301     0.007504
AU156   AU        0.269327    0.430741    0.127940     0.007504
AU157   AU        0.271286    0.462917    0.097262     0.007504
AU158   AU        0.303240    0.429726    0.096190     0.007504
PD159   PD        0.305479    0.466377    0.127514     0.005394
PD160   PD        0.336884    0.428854    0.127730     0.005394
PD161   PD        0.334697    0.467815    0.099843     0.005394
AU162   AU        0.369888    0.431032    0.096173     0.007504
PD163   PD        0.368635    0.463962    0.125045     0.005394
PD164   PD        0.402743    0.430554    0.126761     0.005394
PD165   PD        0.402801    0.464186    0.099031     0.005394
AU166   AU        0.434765    0.428693    0.096392     0.007504
AU167   AU        0.437260    0.464817    0.126640     0.007504
AU168   AU        0.471954    0.429998    0.126798     0.007504
AU169   AU        0.470731    0.464247    0.095587     0.007504
PD170   PD        0.506048    0.431069    0.096727     0.005394
AU171   AU        0.503120    0.464766    0.124880     0.007504
AU172   AU        0.537574    0.429089    0.125750     0.007504
PD173   PD        0.535693    0.467159    0.095408     0.005394
AU174   AU        0.570416    0.430846    0.094714     0.007504
PD175   PD        0.569187    0.466085    0.125807     0.005394
PD176   PD        0.603545    0.429672    0.127896     0.005394
PD177   PD        0.600954    0.467388    0.094398     0.005394
PD178   PD        0.633262    0.428005    0.095511     0.005394
AU179   AU        0.637010    0.462928    0.126181     0.007504
AU180   AU        0.669107    0.428090    0.128825     0.007504
PD181   PD        0.670389    0.462501    0.095778     0.005394
PD182   PD        0.701622    0.464098    0.125266     0.005394
PD183   PD        0.203592    0.501356    0.129706     0.005394
AU184   AU        0.237415    0.498940    0.097809     0.007504
AU185   AU        0.235765    0.535721    0.130378     0.007504
AU186   AU        0.270220    0.499967    0.129062     0.007504
PD187   PD        0.271987    0.536790    0.096338     0.005394
PD188   PD        0.302821    0.498849    0.098292     0.005394
AU189   AU        0.302852    0.538062    0.127981     0.007504
AU190   AU        0.336073    0.503268    0.127716     0.007504
AU191   AU        0.336395    0.534701    0.097730     0.007504
AU192   AU        0.371484    0.498963    0.096814     0.007504
PD193   PD        0.370534    0.536937    0.127265     0.005394
AU194   AU        0.403966    0.501651    0.127732     0.007504
AU195   AU        0.404250    0.535510    0.097509     0.007504
AU196   AU        0.436549    0.500640    0.097046     0.007504
PD197   PD        0.437115    0.538510    0.127318     0.005394
AU198   AU        0.468408    0.502098    0.128431     0.007504
AU199   AU        0.470406    0.536240    0.094703     0.007504
AU200   AU        0.502001    0.500420    0.097401     0.007504
AU201   AU        0.501103    0.537073    0.126071     0.007504
AU202   AU        0.537763    0.500836    0.126544     0.007504
AU203   AU        0.535220    0.536293    0.095869     0.007504
AU204   AU        0.568206    0.502274    0.095152     0.007504
PD205   PD        0.568693    0.539248    0.126033     0.005394
AU206   AU        0.603808    0.498618    0.126092     0.007504
AU207   AU        0.599291    0.536040    0.094556     0.007504
AU208   AU        0.634305    0.499448    0.094984     0.007504
PD209   PD        0.634406    0.535675    0.127449     0.005394
PD210   PD        0.667439    0.502861    0.124845     0.005394
PD211   PD        0.206146    0.569828    0.130463     0.005394
PD212   PD        0.237719    0.604816    0.130134     0.005394
PD213   PD        0.271715    0.570097    0.126685     0.005394
PD214   PD        0.271808    0.606843    0.098260     0.005394
PD215   PD        0.305556    0.570129    0.095231     0.005394
AU216   AU        0.302887    0.609228    0.126833     0.007504
AU217   AU        0.336891    0.572289    0.127575     0.007504
AU218   AU        0.335543    0.607422    0.097002     0.007504
AU219   AU        0.368102    0.572385    0.094687     0.007504
PD220   PD        0.371238    0.607653    0.127743     0.005394
PD221   PD        0.401209    0.570249    0.127328     0.005394
PD222   PD        0.405566    0.606515    0.097560     0.005394
PD223   PD        0.438456    0.574017    0.095900     0.005394
PD224   PD        0.435751    0.606187    0.127516     0.005394
AU225   AU        0.469959    0.570601    0.125280     0.007504
PD226   PD        0.469376    0.607168    0.096314     0.005394
PD227   PD        0.502684    0.575456    0.095742     0.005394
PD228   PD        0.502717    0.605573    0.126481     0.005394
PD229   PD        0.534577    0.572890    0.125629     0.005394
AU230   AU        0.537201    0.607238    0.096065     0.007504
AU231   AU        0.569308    0.572221    0.094413     0.007504
AU232   AU        0.568097    0.607336    0.127615     0.007504
PD233   PD        0.601078    0.571967    0.128782     0.005394
PD234   PD        0.602361    0.606302    0.096712     0.005394
AU235   AU        0.634831    0.607990    0.127373     0.007504
AU236   AU        0.667130    0.573343    0.126709     0.007504
PD237   PD        0.268621    0.643959    0.127387     0.005394
AU238   AU        0.301147    0.678321    0.128457     0.007504
AU239   AU        0.336594    0.645013    0.127038     0.007504
AU240   AU        0.370455    0.641791    0.097135     0.007504
AU241   AU        0.369579    0.679962    0.125794     0.007504
AU242   AU        0.405196    0.643922    0.128508     0.007504
AU243   AU        0.402783    0.677165    0.095367     0.007504
PD244   PD        0.439056    0.641983    0.097241     0.005394
AU245   AU        0.437471    0.679744    0.126765     0.007504
PD246   PD        0.469208    0.640928    0.129427     0.005394
AU247   AU        0.470691    0.678880    0.095843     0.007504
PD248   PD        0.500832    0.640146    0.097205     0.005394
AU249   AU        0.501680    0.677130    0.127508     0.007504
AU250   AU        0.536478    0.644279    0.127419     0.007504
PD251   PD        0.565423    0.677545    0.125262     0.005394
AU252   AU        0.599131    0.643292    0.126266     0.007504
PD253   PD        0.408102    0.714669    0.123917     0.005394
PD254   PD        0.471282    0.711912    0.127173     0.005394
PD255   PD        0.304723    0.064693    0.159139     0.005394
PD256   PD        0.369314    0.109421    0.190473     0.005394
PD257   PD        0.403771    0.080482    0.189680     0.005394
PD258   PD        0.439606    0.067777    0.158982     0.005394
PD259   PD        0.436465    0.114299    0.192104     0.005394
PD260   PD        0.466807    0.043121    0.214041     0.005394
PD261   PD        0.465336    0.114930    0.157057     0.005394
PD262   PD        0.500475    0.113749    0.191411     0.005394
PD263   PD        0.565919    0.113947    0.191807     0.005394
AU264   AU        0.235337    0.182081    0.190049     0.007504
PD265   PD        0.265807    0.145144    0.188751     0.005394
AU266   AU        0.269976    0.179495    0.160458     0.007504
PD267   PD        0.304371    0.144271    0.161412     0.005394
PD268   PD        0.301899    0.180835    0.189105     0.005394
PD269   PD        0.337130    0.143321    0.189554     0.005394
PD270   PD        0.334881    0.179601    0.160681     0.005394
PD271   PD        0.370200    0.141888    0.160528     0.005394
AU272   AU        0.368849    0.178945    0.191109     0.007504
PD273   PD        0.403273    0.144556    0.192464     0.005394
AU274   AU        0.400569    0.178616    0.159123     0.007504
PD275   PD        0.436085    0.147455    0.160698     0.005394
PD276   PD        0.433902    0.181123    0.188744     0.005394
PD277   PD        0.467397    0.148978    0.190359     0.005394
PD278   PD        0.469070    0.183636    0.161160     0.005394
PD279   PD        0.501601    0.149392    0.160261     0.005394
PD280   PD        0.498995    0.182918    0.189244     0.005394
PD281   PD        0.532923    0.147698    0.189267     0.005394
PD282   PD        0.536055    0.185657    0.159807     0.005394
PD283   PD        0.570662    0.148054    0.162761     0.005394
PD284   PD        0.569581    0.178197    0.191759     0.005394
PD285   PD        0.602700    0.143410    0.193561     0.005394
PD286   PD        0.600647    0.184529    0.159476     0.005394
PD287   PD        0.635804    0.177653    0.186564     0.005394
PD288   PD        0.169493    0.252791    0.188768     0.005394
AU289   AU        0.204196    0.217999    0.189828     0.007504
AU290   AU        0.205613    0.254296    0.158817     0.007504
AU291   AU        0.237742    0.217825    0.157980     0.007504
PD292   PD        0.237284    0.252115    0.191302     0.005394
PD293   PD        0.268685    0.215027    0.189982     0.005394
PD294   PD        0.268975    0.253398    0.159477     0.005394
AU295   AU        0.302044    0.214525    0.158227     0.007504
PD296   PD        0.302441    0.254156    0.186803     0.005394
PD297   PD        0.336680    0.215212    0.191567     0.005394
PD298   PD        0.335514    0.252222    0.160257     0.005394
AU299   AU        0.369727    0.215634    0.159629     0.007504
AU300   AU        0.367615    0.252459    0.188698     0.007504
AU301   AU        0.402664    0.216338    0.190435     0.007504
AU302   AU        0.402004    0.252780    0.158095     0.007504
AU303   AU        0.436095    0.217587    0.158659     0.007504
AU304   AU        0.435704    0.252648    0.190508     0.007504
PD305   PD        0.468271    0.218148    0.190943     0.005394
AU306   AU        0.467626    0.250395    0.159605     0.007504
AU307   AU        0.503579    0.220629    0.160621     0.007504
AU308   AU        0.501101    0.253015    0.191447     0.007504
PD309   PD        0.537673    0.218957    0.188868     0.005394
PD310   PD        0.537280    0.251892    0.159287     0.005394
PD311   PD        0.575915    0.215917    0.159025     0.005394
PD312   PD        0.570220    0.252579    0.189001     0.005394
PD313   PD        0.607236    0.216287    0.192406     0.005394
AU314   AU        0.602429    0.252700    0.160292     0.007504
PD315   PD        0.635103    0.215490    0.158066     0.005394
AU316   AU        0.636574    0.250298    0.191209     0.007504
PD317   PD        0.670408    0.214703    0.187716     0.005394
PD318   PD        0.669307    0.251302    0.159130     0.005394
PD319   PD        0.702929    0.252395    0.190585     0.005394
PD320   PD        0.137199    0.287087    0.187750     0.005394
AU321   AU        0.170965    0.288554    0.158966     0.007504
AU322   AU        0.167937    0.321168    0.189961     0.007504
AU323   AU        0.204321    0.288172    0.191602     0.007504
AU324   AU        0.202700    0.322151    0.158515     0.007504
AU325   AU        0.237769    0.287855    0.158089     0.007504
PD326   PD        0.237460    0.321086    0.190501     0.005394
PD327   PD        0.268839    0.287077    0.189564     0.005394
AU328   AU        0.270794    0.324016    0.158173     0.007504
PD329   PD        0.302769    0.288442    0.157031     0.005394
AU330   AU        0.303350    0.323806    0.188038     0.007504
AU331   AU        0.337085    0.289354    0.189324     0.007504
AU332   AU        0.336856    0.321811    0.157617     0.007504
AU333   AU        0.369288    0.287056    0.158727     0.007504
PD334   PD        0.370772    0.322738    0.190278     0.005394
AU335   AU        0.401396    0.284785    0.189697     0.007504
AU336   AU        0.402230    0.322628    0.158758     0.007504
PD337   PD        0.434754    0.286055    0.158377     0.005394
AU338   AU        0.434023    0.321772    0.191325     0.007504
AU339   AU        0.466828    0.289386    0.189559     0.007504
AU340   AU        0.470479    0.322846    0.156986     0.007504
AU341   AU        0.501867    0.286889    0.160317     0.007504
AU342   AU        0.501658    0.323648    0.189161     0.007504
PD343   PD        0.536262    0.286373    0.190049     0.005394
PD344   PD        0.533624    0.321216    0.157640     0.005394
PD345   PD        0.569500    0.286522    0.161029     0.005394
PD346   PD        0.569441    0.322154    0.190404     0.005394
AU347   AU        0.605040    0.286538    0.190760     0.007504
PD348   PD        0.604745    0.320248    0.159506     0.005394
PD349   PD        0.638613    0.285236    0.159475     0.005394
AU350   AU        0.637527    0.325580    0.189739     0.007504
PD351   PD        0.669997    0.286240    0.190360     0.005394
PD352   PD        0.669916    0.321548    0.156756     0.005394
PD353   PD        0.701718    0.286897    0.161500     0.005394
PD354   PD        0.703255    0.323658    0.187271     0.005394
PD355   PD        0.734420    0.291003    0.188824     0.005394
PD356   PD        0.072842    0.362518    0.185424     0.005394
PD357   PD        0.135405    0.356899    0.186445     0.005394
PD358   PD        0.138236    0.395688    0.157685     0.005394
PD359   PD        0.171017    0.356313    0.158844     0.005394
AU360   AU        0.169220    0.392689    0.187806     0.007504
AU361   AU        0.202910    0.358547    0.188575     0.007504
AU362   AU        0.204249    0.393629    0.157002     0.007504
PD363   PD        0.237357    0.358125    0.160189     0.005394
PD364   PD        0.235368    0.392807    0.189165     0.005394
AU365   AU        0.271428    0.359090    0.189240     0.007504
PD366   PD        0.270431    0.394620    0.159770     0.005394
PD367   PD        0.304186    0.359870    0.158379     0.005394
AU368   AU        0.305651    0.395406    0.188483     0.007504
PD369   PD        0.334999    0.356806    0.187782     0.005394
PD370   PD        0.336034    0.393374    0.157686     0.005394
PD371   PD        0.366727    0.357847    0.156632     0.005394
AU372   AU        0.369646    0.391820    0.188156     0.007504
AU373   AU        0.401472    0.356419    0.189134     0.007504
AU374   AU        0.401590    0.392727    0.157704     0.007504
PD375   PD        0.437843    0.355200    0.160114     0.005394
PD376   PD        0.435081    0.394892    0.187606     0.005394
PD377   PD        0.469376    0.358353    0.189888     0.005394
AU378   AU        0.469145    0.392651    0.157291     0.007504
AU379   AU        0.503042    0.361157    0.157724     0.007504
AU380   AU        0.500933    0.392825    0.190413     0.007504
PD381   PD        0.536777    0.360501    0.190397     0.005394
PD382   PD        0.535704    0.395346    0.156636     0.005394
PD383   PD        0.570530    0.356476    0.159082     0.005394
AU384   AU        0.569129    0.393349    0.188869     0.007504
AU385   AU        0.605233    0.357586    0.189443     0.007504
AU386   AU        0.602932    0.394443    0.158441     0.007504
AU387   AU        0.637001    0.356587    0.156513     0.007504
AU388   AU        0.635744    0.393776    0.188283     0.007504
PD389   PD        0.668252    0.360180    0.190482     0.005394
PD390   PD        0.669174    0.393077    0.159873     0.005394
PD391   PD        0.704437    0.361896    0.160765     0.005394
PD392   PD        0.702761    0.392646    0.191305     0.005394
PD393   PD        0.734663    0.357325    0.191113     0.005394
PD394   PD        0.735012    0.390587    0.158860     0.005394
PD395   PD        0.802822    0.388507    0.210421     0.005394
PD396   PD        0.103369    0.464474    0.192564     0.005394
AU397   AU        0.137667    0.430113    0.189479     0.007504
PD398   PD        0.138464    0.461053    0.156054     0.005394
AU399   AU        0.172244    0.429826    0.156282     0.007504
AU400   AU        0.169761    0.465101    0.187665     0.007504
AU401   AU        0.202200    0.429366    0.187818     0.007504
AU402   AU        0.205410    0.464845    0.156906     0.007504
AU403   AU        0.237813    0.429172    0.158283     0.007504
AU404   AU        0.235953    0.464279    0.188154     0.007504
PD405   PD        0.270778    0.428821    0.187297     0.005394
AU406   AU        0.269711    0.466356    0.158951     0.007504
AU407   AU        0.303012    0.429639    0.156876     0.007504
AU408   AU        0.302200    0.465301    0.188508     0.007504
PD409   PD        0.340374    0.429894    0.187415     0.005394
PD410   PD        0.339797    0.465302    0.155215     0.005394
AU411   AU        0.371102    0.428281    0.156483     0.007504
PD412   PD        0.371857    0.466053    0.188277     0.005394
PD413   PD        0.402695    0.429547    0.187725     0.005394
PD414   PD        0.401848    0.466457    0.155416     0.005394
AU415   AU        0.435258    0.431216    0.157562     0.007504
PD416   PD        0.433860    0.465717    0.190749     0.005394
PD417   PD        0.470840    0.430386    0.187670     0.005394
AU418   AU        0.469642    0.465698    0.157835     0.007504
PD419   PD        0.502689    0.428064    0.156211     0.005394
AU420   AU        0.503995    0.464556    0.186459     0.007504
PD421   PD        0.536127    0.426900    0.189031     0.005394
AU422   AU        0.537003    0.465557    0.157790     0.007504
PD423   PD        0.568421    0.427766    0.159165     0.005394
PD424   PD        0.567852    0.468482    0.188244     0.005394
PD425   PD        0.602249    0.430492    0.189326     0.005394
AU426   AU        0.602012    0.464579    0.158149     0.007504
AU427   AU        0.635349    0.428252    0.158794     0.007504
PD428   PD        0.637257    0.462509    0.188268     0.005394
PD429   PD        0.668791    0.429464    0.190027     0.005394
PD430   PD        0.667911    0.463386    0.158292     0.005394
PD431   PD        0.701384    0.429484    0.159782     0.005394
AU432   AU        0.699907    0.465363    0.189772     0.007504
AU433   AU        0.732923    0.432242    0.190537     0.007504
AU434   AU        0.732304    0.466136    0.158696     0.007504
PD435   PD        0.765508    0.467528    0.189437     0.005394
PD436   PD        0.136090    0.499123    0.189673     0.005394
PD437   PD        0.169713    0.497121    0.156815     0.005394
AU438   AU        0.168818    0.535874    0.190078     0.007504
AU439   AU        0.203401    0.497907    0.188743     0.007504
PD440   PD        0.202169    0.534037    0.160508     0.005394
AU441   AU        0.237001    0.501312    0.159617     0.007504
AU442   AU        0.236240    0.536768    0.189893     0.007504
AU443   AU        0.272135    0.502525    0.189774     0.007504
PD444   PD        0.270371    0.539063    0.158795     0.005394
PD445   PD        0.304507    0.502380    0.158010     0.005394
PD446   PD        0.304236    0.535458    0.190558     0.005394
AU447   AU        0.336046    0.501584    0.188224     0.007504
PD448   PD        0.335856    0.535954    0.158059     0.005394
AU449   AU        0.370241    0.501901    0.156348     0.007504
AU450   AU        0.370674    0.537425    0.188263     0.007504
AU451   AU        0.402954    0.502784    0.188241     0.007504
PD452   PD        0.403139    0.537932    0.157341     0.005394
AU453   AU        0.435809    0.501969    0.157275     0.007504
PD454   PD        0.436296    0.539408    0.187902     0.005394
AU455   AU        0.468210    0.503158    0.188320     0.007504
PD456   PD        0.471051    0.535415    0.157232     0.005394
PD457   PD        0.503721    0.502889    0.156965     0.005394
PD458   PD        0.504461    0.535354    0.190307     0.005394
AU459   AU        0.534861    0.500169    0.188791     0.007504
AU460   AU        0.537014    0.538325    0.156127     0.007504
AU461   AU        0.570529    0.502789    0.157614     0.007504
AU462   AU        0.567164    0.537869    0.188124     0.007504
PD463   PD        0.601001    0.499667    0.187153     0.005394
PD464   PD        0.601012    0.534275    0.159023     0.005394
PD465   PD        0.636233    0.501974    0.156847     0.005394
PD466   PD        0.633711    0.536040    0.187185     0.005394
PD467   PD        0.667807    0.501749    0.187069     0.005394
PD468   PD        0.668319    0.538665    0.155899     0.005394
PD469   PD        0.697018    0.501394    0.157460     0.005394
AU470   AU        0.701010    0.534535    0.188512     0.007504
PD471   PD        0.734662    0.497628    0.189964     0.005394
AU472   AU        0.137158    0.571651    0.187191     0.007504
PD473   PD        0.109806    0.542730    0.121514     0.005394
PD474   PD        0.173252    0.680618    0.191969     0.005394
AU475   AU        0.202793    0.570388    0.187443     0.007504
PD476   PD        0.205949    0.607770    0.158877     0.005394
PD477   PD        0.238538    0.572626    0.158900     0.005394
AU478   AU        0.238235    0.608430    0.189871     0.007504
PD479   PD        0.270427    0.570996    0.190205     0.005394
PD480   PD        0.270382    0.608733    0.158214     0.005394
AU481   AU        0.304377    0.573746    0.158316     0.007504
AU482   AU        0.303914    0.608380    0.187882     0.007504
AU483   AU        0.335842    0.569516    0.190067     0.007504
AU484   AU        0.337428    0.607558    0.157127     0.007504
AU485   AU        0.369169    0.572840    0.156930     0.007504
AU486   AU        0.368145    0.608708    0.187766     0.007504
AU487   AU        0.402114    0.573283    0.188132     0.007504
AU488   AU        0.402147    0.609505    0.157895     0.007504
AU489   AU        0.436714    0.573129    0.157868     0.007504
PD490   PD        0.434541    0.610831    0.190990     0.005394
PD491   PD        0.468766    0.575540    0.187455     0.005394
AU492   AU        0.470877    0.609949    0.157637     0.007504
PD493   PD        0.501779    0.572313    0.156682     0.005394
PD494   PD        0.501800    0.608037    0.188694     0.005394
PD495   PD        0.536172    0.572880    0.188940     0.005394
AU496   AU        0.535525    0.604656    0.156261     0.007504
PD497   PD        0.569103    0.571943    0.157449     0.005394
PD498   PD        0.571082    0.606698    0.189268     0.005394
PD499   PD        0.604691    0.572392    0.189306     0.005394
AU500   AU        0.603162    0.608290    0.158353     0.007504
AU501   AU        0.634828    0.572240    0.157957     0.007504
AU502   AU        0.633068    0.609759    0.187963     0.007504
PD503   PD        0.668509    0.570433    0.189815     0.005394
AU504   AU        0.665639    0.607297    0.158666     0.007504
PD505   PD        0.701098    0.571920    0.158342     0.005394
AU506   AU        0.701218    0.609097    0.188564     0.007504
PD507   PD        0.771650    0.532075    0.192934     0.005394
PD508   PD        0.203123    0.646014    0.187790     0.005394
PD509   PD        0.232965    0.643949    0.157786     0.005394
PD510   PD        0.236209    0.678380    0.189521     0.005394
AU511   AU        0.271698    0.643197    0.188696     0.007504
AU512   AU        0.268197    0.677871    0.157386     0.007504
AU513   AU        0.303520    0.643162    0.159197     0.007504
AU514   AU        0.301374    0.679973    0.188831     0.007504
AU515   AU        0.336721    0.644133    0.186946     0.007504
AU516   AU        0.334859    0.679311    0.157445     0.007504
AU517   AU        0.369148    0.646168    0.157396     0.007504
PD518   PD        0.367627    0.679920    0.188452     0.005394
PD519   PD        0.402536    0.646339    0.186093     0.005394
PD520   PD        0.403390    0.678801    0.154840     0.005394
PD521   PD        0.437988    0.643813    0.156368     0.005394
AU522   AU        0.435954    0.680187    0.187159     0.007504
AU523   AU        0.468733    0.644751    0.188688     0.007504
AU524   AU        0.470775    0.676821    0.157746     0.007504
AU525   AU        0.503600    0.643188    0.157283     0.007504
AU526   AU        0.503390    0.678463    0.188415     0.007504
AU527   AU        0.534723    0.641069    0.188187     0.007504
AU528   AU        0.536813    0.677807    0.158408     0.007504
AU529   AU        0.569256    0.641443    0.158983     0.007504
AU530   AU        0.568511    0.676444    0.188566     0.007504
AU531   AU        0.601817    0.643073    0.189202     0.007504
PD532   PD        0.600628    0.676281    0.157551     0.005394
AU533   AU        0.633370    0.643355    0.156693     0.007504
PD534   PD        0.634659    0.679067    0.192411     0.005394
AU535   AU        0.667165    0.644300    0.187760     0.007504
AU536   AU        0.268053    0.711599    0.190041     0.007504
AU537   AU        0.302337    0.715003    0.160585     0.007504
PD538   PD        0.301262    0.747653    0.191323     0.005394
AU539   AU        0.334033    0.714352    0.190415     0.007504
PD540   PD        0.367395    0.712997    0.156282     0.005394
PD541   PD        0.366581    0.751601    0.187407     0.005394
AU542   AU        0.401220    0.712039    0.185984     0.007504
PD543   PD        0.401105    0.747834    0.157080     0.005394
AU544   AU        0.437379    0.713297    0.158037     0.007504
AU545   AU        0.434219    0.746806    0.187952     0.007504
PD546   PD        0.468057    0.714420    0.188184     0.005394
PD547   PD        0.465095    0.749002    0.159239     0.005394
AU548   AU        0.500819    0.712181    0.157849     0.007504
PD549   PD        0.501147    0.750855    0.187816     0.005394
AU550   AU        0.534328    0.713785    0.187798     0.007504
PD551   PD        0.569598    0.711767    0.161266     0.005394
PD552   PD        0.571969    0.751058    0.190562     0.005394
PD553   PD        0.602371    0.710801    0.125189     0.005394
AU554   AU        0.401672    0.782194    0.186141     0.007504
PD555   PD        0.466388    0.782058    0.188900     0.005394
AU556   AU        0.372488    0.034987    0.256333     0.007504
PD557   PD        0.435012    0.039641    0.251062     0.005394
PD558   PD        0.501448    0.041532    0.253829     0.005394
PD559   PD        0.236788    0.111010    0.250861     0.005394
PD560   PD        0.238232    0.030534    0.257148     0.005394
PD561   PD        0.237791    0.108939    0.184496     0.005394
AU562   AU        0.303432    0.108267    0.251587     0.007504
PD563   PD        0.340732    0.069411    0.251211     0.005394
PD564   PD        0.335578    0.113340    0.221253     0.005394
PD565   PD        0.369039    0.000714    0.226234     0.005394
PD566   PD        0.366927    0.108724    0.252744     0.005394
PD567   PD        0.403526    0.075056    0.252448     0.005394
PD568   PD        0.401565    0.111983    0.223561     0.005394
PD569   PD        0.435992    0.077525    0.223083     0.005394
AU570   AU        0.437233    0.109872    0.253429     0.007504
PD571   PD        0.466368    0.076049    0.253585     0.005394
PD572   PD        0.468901    0.111452    0.219883     0.005394
PD573   PD        0.499710    0.078706    0.224731     0.005394
AU574   AU        0.501094    0.110176    0.253422     0.007504
PD575   PD        0.533965    0.076032    0.253874     0.005394
AU576   AU        0.536580    0.114008    0.222833     0.007504
PD577   PD        0.566330    0.107803    0.255627     0.005394
PD578   PD        0.601521    0.074678    0.254077     0.005394
PD579   PD        0.597636    0.105657    0.222052     0.005394
PD580   PD        0.632050    0.103474    0.253679     0.005394
PD581   PD        0.172599    0.178607    0.250127     0.005394
PD582   PD        0.204354    0.112442    0.215833     0.005394
AU583   AU        0.206496    0.145586    0.183943     0.007504
PD584   PD        0.234371    0.147178    0.219714     0.005394
PD585   PD        0.238010    0.181704    0.252606     0.005394
PD586   PD        0.271792    0.144281    0.251939     0.005394
PD587   PD        0.270968    0.179316    0.221558     0.005394
PD588   PD        0.301826    0.142898    0.220482     0.005394
AU589   AU        0.302701    0.180157    0.253577     0.007504
PD590   PD        0.335522    0.145347    0.253730     0.005394
AU591   AU        0.334218    0.178675    0.220003     0.007504
PD592   PD        0.368578    0.146235    0.222714     0.005394
PD593   PD        0.369932    0.180974    0.253820     0.005394
PD594   PD        0.404968    0.146632    0.254326     0.005394
AU595   AU        0.401517    0.180872    0.220205     0.007504
PD596   PD        0.435752    0.147093    0.223274     0.005394
PD597   PD        0.435082    0.180630    0.254259     0.005394
PD598   PD        0.469089    0.144040    0.254883     0.005394
PD599   PD        0.470176    0.181625    0.222146     0.005394
AU600   AU        0.502239    0.146008    0.223054     0.007504
PD601   PD        0.500822    0.179162    0.253557     0.005394
AU602   AU        0.534292    0.145584    0.255712     0.007504
PD603   PD        0.536048    0.180170    0.226286     0.005394
PD604   PD        0.571688    0.146183    0.227225     0.005394
PD605   PD        0.571386    0.181740    0.252301     0.005394
PD606   PD        0.602226    0.144538    0.254131     0.005394
PD607   PD        0.602433    0.177826    0.222310     0.005394
AU608   AU        0.636342    0.142768    0.223442     0.007504
AU609   AU        0.637391    0.180950    0.254676     0.007504
PD610   PD        0.668408    0.142443    0.254838     0.005394
PD611   PD        0.666328    0.178774    0.220400     0.005394
PD612   PD        0.699442    0.183753    0.255513     0.005394
PD613   PD        0.114431    0.209446    0.218565     0.005394
PD614   PD        0.138281    0.216842    0.248775     0.005394
AU615   AU        0.136036    0.252472    0.218593     0.007504
PD616   PD        0.173831    0.215745    0.221711     0.005394
AU617   AU        0.168938    0.253373    0.249358     0.007504
PD618   PD        0.204686    0.214607    0.253432     0.005394
PD619   PD        0.204574    0.249566    0.220343     0.005394
PD620   PD        0.237215    0.215428    0.220903     0.005394
PD621   PD        0.235960    0.251612    0.252075     0.005394
PD622   PD        0.270861    0.214794    0.253429     0.005394
PD623   PD        0.269548    0.253916    0.221089     0.005394
AU624   AU        0.300631    0.216264    0.219977     0.007504
PD625   PD        0.304430    0.248817    0.251096     0.005394
AU626   AU        0.335307    0.214315    0.251208     0.007504
PD627   PD        0.335303    0.252668    0.218814     0.005394
AU628   AU        0.368825    0.215111    0.220997     0.007504
AU629   AU        0.369183    0.251718    0.251300     0.007504
AU630   AU        0.400210    0.215392    0.251149     0.007504
AU631   AU        0.402856    0.251553    0.221052     0.007504
AU632   AU        0.434540    0.215429    0.221413     0.007504
AU633   AU        0.433681    0.251410    0.253497     0.007504
PD634   PD        0.468222    0.216425    0.253353     0.005394
AU635   AU        0.466279    0.252541    0.221852     0.007504
PD636   PD        0.501358    0.215216    0.220568     0.005394
PD637   PD        0.500077    0.250175    0.253174     0.005394
PD638   PD        0.535149    0.215041    0.254188     0.005394
PD639   PD        0.533156    0.252427    0.220521     0.005394
PD640   PD        0.570087    0.217030    0.219311     0.005394
PD641   PD        0.569262    0.247339    0.252329     0.005394
PD642   PD        0.602633    0.213854    0.253117     0.005394
PD643   PD        0.603863    0.250836    0.221217     0.005394
PD644   PD        0.634825    0.214946    0.218225     0.005394
PD645   PD        0.637402    0.247750    0.250243     0.005394
PD646   PD        0.668041    0.211953    0.253021     0.005394
AU647   AU        0.671275    0.251857    0.221473     0.007504
AU648   AU        0.704499    0.213536    0.223430     0.007504
PD649   PD        0.705530    0.250187    0.252176     0.005394
AU650   AU        0.770061    0.249265    0.250152     0.007504
PD651   PD        0.738704    0.255283    0.219978     0.005394
PD652   PD        0.801596    0.253578    0.282100     0.005394
AU653   AU        0.102298    0.321759    0.250186     0.007504
PD654   PD        0.135192    0.286058    0.249660     0.005394
AU655   AU        0.135661    0.320321    0.219472     0.007504
PD656   PD        0.170567    0.284712    0.218967     0.005394
PD657   PD        0.170374    0.320244    0.253614     0.005394
PD658   PD        0.202632    0.286450    0.251785     0.005394
PD659   PD        0.203648    0.323320    0.219944     0.005394
AU660   AU        0.238237    0.289073    0.222758     0.007504
PD661   PD        0.235802    0.326292    0.250555     0.005394
PD662   PD        0.271755    0.286931    0.253110     0.005394
PD663   PD        0.270389    0.325024    0.219233     0.005394
AU664   AU        0.303236    0.288253    0.221815     0.007504
AU665   AU        0.303443    0.322123    0.253421     0.007504
AU666   AU        0.336993    0.287223    0.253573     0.007504
PD667   PD        0.338038    0.324322    0.219692     0.005394
AU668   AU        0.368985    0.287679    0.221904     0.007504
AU669   AU        0.368607    0.320982    0.251188     0.007504
PD670   PD        0.403114    0.284953    0.251412     0.005394
AU671   AU        0.402390    0.322163    0.220581     0.007504
PD672   PD        0.433951    0.289104    0.219990     0.005394
AU673   AU        0.433982    0.320674    0.253128     0.007504
PD674   PD        0.467996    0.286356    0.249025     0.005394
AU675   AU        0.467608    0.322258    0.222534     0.007504
PD676   PD        0.501794    0.288325    0.218917     0.005394
AU677   AU        0.504876    0.321942    0.250637     0.007504
PD678   PD        0.536678    0.285085    0.253702     0.005394
AU679   AU        0.536928    0.321480    0.219371     0.007504
PD680   PD        0.569643    0.288020    0.220119     0.005394
AU681   AU        0.569821    0.321178    0.250622     0.007504
PD682   PD        0.603915    0.285522    0.251171     0.005394
PD683   PD        0.605269    0.322557    0.221438     0.005394
AU684   AU        0.638020    0.287667    0.220508     0.007504
PD685   PD        0.638872    0.321047    0.252807     0.005394
PD686   PD        0.669716    0.288580    0.252284     0.005394
AU687   AU        0.671381    0.321139    0.222491     0.007504
AU688   AU        0.704887    0.287989    0.221817     0.007504
AU689   AU        0.703253    0.321381    0.254234     0.007504
PD690   PD        0.736347    0.286879    0.255793     0.005394
PD691   PD        0.735050    0.321025    0.223498     0.005394
PD692   PD        0.769974    0.324817    0.256399     0.005394
PD693   PD        0.071839    0.359392    0.252710     0.005394
AU694   AU        0.104316    0.359196    0.219319     0.007504
PD695   PD        0.105994    0.393691    0.252814     0.005394
PD696   PD        0.136558    0.357922    0.251676     0.005394
AU697   AU        0.135881    0.393174    0.218775     0.007504
PD698   PD        0.166011    0.356405    0.220857     0.005394
PD699   PD        0.170574    0.390632    0.250429     0.005394
PD700   PD        0.203696    0.358798    0.246344     0.005394
PD701   PD        0.201422    0.393134    0.218695     0.005394
PD702   PD        0.237771    0.360354    0.219046     0.005394
AU703   AU        0.237056    0.393063    0.248405     0.007504
AU704   AU        0.272173    0.357911    0.251809     0.007504
AU705   AU        0.272807    0.396815    0.218511     0.007504
AU706   AU        0.303640    0.357781    0.219822     0.007504
AU707   AU        0.302933    0.394915    0.252661     0.007504
PD708   PD        0.336842    0.357589    0.249710     0.005394
PD709   PD        0.336094    0.394327    0.219393     0.005394
AU710   AU        0.370101    0.356248    0.220950     0.007504
AU711   AU        0.368734    0.391474    0.249786     0.007504
AU712   AU        0.403710    0.357128    0.251093     0.007504
AU713   AU        0.402407    0.394253    0.219597     0.007504
AU714   AU        0.435025    0.357387    0.220787     0.007504
AU715   AU        0.436871    0.394414    0.251946     0.007504
AU716   AU        0.468273    0.358356    0.250174     0.007504
AU717   AU        0.469809    0.393092    0.219941     0.007504
AU718   AU        0.502588    0.357125    0.220032     0.007504
AU719   AU        0.499736    0.393938    0.249684     0.007504
AU720   AU        0.534359    0.359448    0.250639     0.007504
AU721   AU        0.534035    0.395111    0.220548     0.007504
PD722   PD        0.568789    0.356698    0.220077     0.005394
AU723   AU        0.570558    0.394076    0.249072     0.007504
PD724   PD        0.604684    0.358507    0.250972     0.005394
AU725   AU        0.604702    0.393813    0.219090     0.007504
PD726   PD        0.637476    0.357830    0.221022     0.005394
AU727   AU        0.636853    0.393788    0.251985     0.007504
AU728   AU        0.669676    0.357255    0.253426     0.007504
PD729   PD        0.667797    0.394151    0.220446     0.005394
AU730   AU        0.703195    0.357648    0.222849     0.007504
AU731   AU        0.700305    0.394316    0.252061     0.007504
PD732   PD        0.733308    0.358340    0.255629     0.005394
AU733   AU        0.735740    0.394542    0.219387     0.007504
PD734   PD        0.768157    0.358504    0.221655     0.005394
AU735   AU        0.765501    0.393654    0.255099     0.007504
PD736   PD        0.802726    0.359646    0.254486     0.005394
AU737   AU        0.071352    0.432435    0.252552     0.007504
PD738   PD        0.106708    0.429233    0.223519     0.005394
AU739   AU        0.106038    0.465037    0.251873     0.007504
PD740   PD        0.136683    0.429801    0.251593     0.005394
PD741   PD        0.139536    0.464726    0.218266     0.005394
AU742   AU        0.169616    0.428787    0.221776     0.007504
PD743   PD        0.167598    0.467772    0.250034     0.005394
PD744   PD        0.204491    0.428029    0.249826     0.005394
PD745   PD        0.202187    0.465480    0.219153     0.005394
PD746   PD        0.235733    0.431955    0.217888     0.005394
AU747   AU        0.236602    0.465587    0.249842     0.007504
PD748   PD        0.268609    0.431667    0.249344     0.005394
AU749   AU        0.269911    0.463936    0.218046     0.007504
PD750   PD        0.303582    0.431072    0.220388     0.005394
AU751   AU        0.302731    0.466024    0.249762     0.007504
AU752   AU        0.336598    0.430093    0.253282     0.007504
PD753   PD        0.338268    0.467768    0.220155     0.005394
PD754   PD        0.371919    0.427415    0.218308     0.005394
AU755   AU        0.370102    0.463954    0.249319     0.007504
PD756   PD        0.402813    0.428457    0.251719     0.005394
PD757   PD        0.403437    0.466708    0.218181     0.005394
AU758   AU        0.435123    0.428255    0.221074     0.007504
PD759   PD        0.437816    0.464580    0.248574     0.005394
PD760   PD        0.470625    0.428256    0.250492     0.005394
AU761   AU        0.468230    0.465055    0.218864     0.007504
AU762   AU        0.502794    0.429177    0.221391     0.007504
AU763   AU        0.502329    0.463908    0.251452     0.007504
AU764   AU        0.535425    0.428911    0.251729     0.007504
PD765   PD        0.534255    0.466415    0.219355     0.005394
PD766   PD        0.566877    0.428339    0.220198     0.005394
AU767   AU        0.570054    0.464955    0.249904     0.007504
AU768   AU        0.601242    0.430877    0.250470     0.007504
PD769   PD        0.602377    0.466194    0.221242     0.005394
AU770   AU        0.637847    0.430184    0.219862     0.007504
PD771   PD        0.634413    0.466633    0.250751     0.005394
PD772   PD        0.669686    0.430265    0.253455     0.005394
AU773   AU        0.667626    0.467654    0.221694     0.007504
PD774   PD        0.702348    0.430336    0.222199     0.005394
PD775   PD        0.700966    0.465473    0.253031     0.005394
PD776   PD        0.732771    0.432717    0.253677     0.005394
PD777   PD        0.736071    0.465582    0.221008     0.005394
PD778   PD        0.867128    0.467991    0.214760     0.005394
PD779   PD        0.768042    0.464498    0.252543     0.005394
PD780   PD        0.799305    0.429001    0.257372     0.005394
PD781   PD        0.039075    0.505711    0.227289     0.005394
PD782   PD        0.103160    0.500053    0.222213     0.005394
PD783   PD        0.071259    0.532457    0.213056     0.005394
PD784   PD        0.136765    0.502950    0.250971     0.005394
PD785   PD        0.136904    0.535052    0.219008     0.005394
AU786   AU        0.169761    0.499441    0.218805     0.007504
PD787   PD        0.169547    0.535872    0.250841     0.005394
AU788   AU        0.200285    0.501251    0.250093     0.007504
AU789   AU        0.204358    0.534842    0.219733     0.007504
PD790   PD        0.236124    0.499109    0.218442     0.005394
AU791   AU        0.233962    0.536557    0.250794     0.007504
AU792   AU        0.270262    0.501180    0.249545     0.007504
PD793   PD        0.270678    0.538886    0.218861     0.005394
AU794   AU        0.304863    0.500805    0.220134     0.007504
AU795   AU        0.303727    0.538212    0.250932     0.007504
PD796   PD        0.338413    0.499258    0.248921     0.005394
AU797   AU        0.337029    0.535942    0.219606     0.007504
PD798   PD        0.369590    0.499962    0.218643     0.005394
AU799   AU        0.368199    0.536754    0.251588     0.007504
AU800   AU        0.402625    0.498830    0.250161     0.007504
AU801   AU        0.403533    0.537688    0.219849     0.007504
AU802   AU        0.435652    0.502074    0.219641     0.007504
AU803   AU        0.437854    0.537394    0.250104     0.007504
PD804   PD        0.470221    0.499716    0.250724     0.005394
AU805   AU        0.468299    0.537148    0.217429     0.007504
AU806   AU        0.503660    0.499207    0.219754     0.007504
PD807   PD        0.501567    0.535277    0.248790     0.005394
AU808   AU        0.538304    0.498585    0.250202     0.007504
AU809   AU        0.537370    0.537401    0.221304     0.007504
PD810   PD        0.569743    0.502773    0.218389     0.005394
PD811   PD        0.569245    0.536388    0.249244     0.005394
AU812   AU        0.601944    0.502531    0.249882     0.007504
AU813   AU        0.602607    0.537536    0.218823     0.007504
AU814   AU        0.634435    0.501449    0.219334     0.007504
AU815   AU        0.634897    0.537418    0.252082     0.007504
PD816   PD        0.670775    0.503485    0.252776     0.005394
PD817   PD        0.670367    0.537547    0.221915     0.005394
AU818   AU        0.702985    0.500244    0.219821     0.007504
PD819   PD        0.703413    0.538754    0.252072     0.005394
PD820   PD        0.731366    0.499681    0.252731     0.005394
PD821   PD        0.734785    0.535184    0.223817     0.005394
PD822   PD        0.804576    0.496802    0.195805     0.005394
PD823   PD        0.835987    0.496699    0.224026     0.005394
PD824   PD        0.798899    0.503113    0.252975     0.005394
PD825   PD        0.103820    0.643171    0.283907     0.005394
PD826   PD        0.139213    0.571976    0.252331     0.005394
PD827   PD        0.136778    0.605325    0.219905     0.005394
AU828   AU        0.170804    0.572753    0.217410     0.007504
AU829   AU        0.169006    0.606773    0.251016     0.007504
AU830   AU        0.201674    0.572099    0.250254     0.007504
AU831   AU        0.202981    0.608537    0.217231     0.007504
PD832   PD        0.236411    0.568894    0.220983     0.005394
PD833   PD        0.234290    0.605975    0.248405     0.005394
AU834   AU        0.269407    0.571235    0.250987     0.007504
PD835   PD        0.268818    0.606658    0.218979     0.005394
AU836   AU        0.302931    0.573431    0.219682     0.007504
AU837   AU        0.303812    0.607106    0.250125     0.007504
AU838   AU        0.336611    0.572445    0.250911     0.007504
AU839   AU        0.337259    0.606596    0.219343     0.007504
AU840   AU        0.370110    0.572711    0.220646     0.007504
AU841   AU        0.369666    0.607322    0.250878     0.007504
AU842   AU        0.403540    0.571842    0.251692     0.007504
PD843   PD        0.403522    0.608927    0.219293     0.005394
AU844   AU        0.436559    0.573584    0.219956     0.007504
AU845   AU        0.436481    0.609722    0.249802     0.007504
AU846   AU        0.469104    0.574782    0.250276     0.007504
AU847   AU        0.466981    0.607854    0.218440     0.007504
PD848   PD        0.501917    0.570302    0.218874     0.005394
AU849   AU        0.503130    0.610214    0.250058     0.007504
AU850   AU        0.537563    0.573191    0.252063     0.007504
PD851   PD        0.535484    0.608230    0.219154     0.005394
PD852   PD        0.567932    0.573111    0.219673     0.005394
AU853   AU        0.568785    0.607124    0.250185     0.007504
AU854   AU        0.601627    0.572657    0.249696     0.007504
PD855   PD        0.601764    0.608303    0.221043     0.005394
PD856   PD        0.635766    0.573625    0.219139     0.005394
AU857   AU        0.634681    0.607903    0.252352     0.007504
AU858   AU        0.668557    0.573540    0.251487     0.007504
AU859   AU        0.667504    0.607784    0.219333     0.007504
PD860   PD        0.700850    0.574098    0.219758     0.005394
PD861   PD        0.702544    0.606158    0.248809     0.005394
PD862   PD        0.736114    0.570745    0.252787     0.005394
PD863   PD        0.735926    0.602275    0.219886     0.005394
PD864   PD        0.772648    0.606650    0.253457     0.005394
PD865   PD        0.135322    0.679159    0.221868     0.005394
PD866   PD        0.171027    0.642022    0.219312     0.005394
AU867   AU        0.168603    0.677304    0.250534     0.007504
PD868   PD        0.202013    0.642337    0.251009     0.005394
AU869   AU        0.205011    0.677724    0.220641     0.007504
AU870   AU        0.239274    0.642194    0.219501     0.007504
AU871   AU        0.237434    0.676377    0.251277     0.007504
AU872   AU        0.270490    0.641365    0.250648     0.007504
AU873   AU        0.271666    0.676273    0.221071     0.007504
AU874   AU        0.303210    0.641123    0.219990     0.007504
AU875   AU        0.303901    0.675862    0.250642     0.007504
PD876   PD        0.338340    0.642060    0.248463     0.005394
PD877   PD        0.334792    0.679438    0.217915     0.005394
PD878   PD        0.371193    0.641874    0.219383     0.005394
AU879   AU        0.369674    0.680047    0.248415     0.007504
AU880   AU        0.401190    0.643798    0.249847     0.007504
AU881   AU        0.402846    0.679729    0.218215     0.007504
AU882   AU        0.434742    0.644357    0.218889     0.007504
PD883   PD        0.436256    0.680530    0.249070     0.005394
AU884   AU        0.470326    0.644374    0.250261     0.007504
AU885   AU        0.467723    0.681048    0.219767     0.007504
AU886   AU        0.502344    0.645642    0.218228     0.007504
PD887   PD        0.501330    0.680361    0.249409     0.005394
PD888   PD        0.534867    0.642022    0.252057     0.005394
PD889   PD        0.535253    0.676461    0.218316     0.005394
AU890   AU        0.568649    0.644835    0.220344     0.007504
PD891   PD        0.568724    0.682339    0.250046     0.005394
PD892   PD        0.601522    0.645447    0.252797     0.005394
PD893   PD        0.601554    0.679555    0.221293     0.005394
PD894   PD        0.634856    0.642346    0.222558     0.005394
AU895   AU        0.635917    0.678749    0.253978     0.007504
AU896   AU        0.668935    0.641457    0.251676     0.007504
PD897   PD        0.670524    0.679077    0.220915     0.005394
PD898   PD        0.701087    0.644753    0.217786     0.005394
PD899   PD        0.700900    0.678203    0.254437     0.005394
PD900   PD        0.765302    0.686592    0.244380     0.005394
AU901   AU        0.201778    0.710885    0.251261     0.007504
PD902   PD        0.236645    0.713138    0.222750     0.005394
PD903   PD        0.236739    0.746438    0.252527     0.005394
AU904   AU        0.270084    0.712300    0.251380     0.007504
PD905   PD        0.268437    0.747474    0.220551     0.005394
AU906   AU        0.301155    0.712832    0.221459     0.007504
AU907   AU        0.301761    0.748262    0.249235     0.007504
AU908   AU        0.335441    0.713286    0.250303     0.007504
AU909   AU        0.333953    0.748259    0.220330     0.007504
PD910   PD        0.367663    0.715491    0.219337     0.005394
AU911   AU        0.369665    0.748442    0.250055     0.007504
AU912   AU        0.401663    0.713553    0.248650     0.007504
AU913   AU        0.400892    0.748301    0.219287     0.007504
PD914   PD        0.434254    0.715103    0.218786     0.005394
AU915   AU        0.434453    0.748071    0.249580     0.007504
PD916   PD        0.469839    0.715550    0.250938     0.005394
PD917   PD        0.468356    0.748418    0.219046     0.005394
PD918   PD        0.501492    0.715027    0.217400     0.005394
PD919   PD        0.502740    0.748214    0.250506     0.005394
PD920   PD        0.532697    0.713695    0.249090     0.005394
PD921   PD        0.536353    0.750518    0.218619     0.005394
AU922   AU        0.568487    0.713880    0.219210     0.007504
PD923   PD        0.565161    0.747049    0.250256     0.005394
AU924   AU        0.602489    0.714098    0.252747     0.007504
PD925   PD        0.601732    0.745861    0.219041     0.005394
AU926   AU        0.635741    0.714303    0.223315     0.007504
AU927   AU        0.635161    0.750017    0.252046     0.007504
AU928   AU        0.667767    0.712875    0.252503     0.007504
PD929   PD        0.267194    0.784017    0.251415     0.005394
PD930   PD        0.336301    0.783472    0.251152     0.005394
PD931   PD        0.369042    0.784598    0.216754     0.005394
PD932   PD        0.368262    0.818664    0.250285     0.005394
PD933   PD        0.400425    0.783559    0.251762     0.005394
AU934   AU        0.434799    0.782656    0.220321     0.007504
PD935   PD        0.433204    0.818582    0.251248     0.005394
PD936   PD        0.467892    0.782348    0.251874     0.005394
PD937   PD        0.501780    0.785424    0.220167     0.005394
PD938   PD        0.498826    0.819297    0.250510     0.005394
PD939   PD        0.535339    0.784947    0.249754     0.005394
PD940   PD        0.600701    0.780173    0.251366     0.005394
PD941   PD        0.303876    0.040676    0.315695     0.005394
PD942   PD        0.339201    0.036679    0.284423     0.005394
PD943   PD        0.372356    0.039819    0.316434     0.005394
PD944   PD        0.402163    0.042647    0.286314     0.005394
PD945   PD        0.438921    0.037287    0.314354     0.005394
PD946   PD        0.468016    0.041457    0.286020     0.005394
AU947   AU        0.500886    0.039848    0.317616     0.007504
PD948   PD        0.535402    0.037767    0.286751     0.005394
PD949   PD        0.569544    0.038377    0.315140     0.005394
PD950   PD        0.208804    0.106245    0.284666     0.005394
PD951   PD        0.235486    0.108183    0.313036     0.005394
PD952   PD        0.238605    0.071936    0.282921     0.005394
AU953   AU        0.269710    0.111872    0.285228     0.007504
PD954   PD        0.305392    0.076158    0.281907     0.005394
PD955   PD        0.303518    0.109730    0.314180     0.005394
PD956   PD        0.337921    0.076213    0.315944     0.005394
PD957   PD        0.336984    0.109835    0.283641     0.005394
PD958   PD        0.370429    0.077760    0.284436     0.005394
PD959   PD        0.369190    0.113540    0.310321     0.005394
AU960   AU        0.402670    0.075634    0.316234     0.007504
AU961   AU        0.402545    0.110684    0.282301     0.007504
AU962   AU        0.436133    0.076045    0.285212     0.007504
AU963   AU        0.434302    0.111442    0.315502     0.007504
PD964   PD        0.469013    0.074276    0.316225     0.005394
AU965   AU        0.466713    0.109622    0.285733     0.007504
AU966   AU        0.501918    0.073953    0.286015     0.007504
PD967   PD        0.501161    0.107123    0.316799     0.005394
AU968   AU        0.535149    0.073600    0.316307     0.007504
AU969   AU        0.534745    0.108613    0.285234     0.007504
AU970   AU        0.565795    0.074562    0.285354     0.007504
AU971   AU        0.566724    0.108902    0.316855     0.007504
AU972   AU        0.600215    0.076725    0.315559     0.007504
PD973   PD        0.599356    0.110687    0.284923     0.005394
PD974   PD        0.633786    0.107927    0.315464     0.005394
PD975   PD        0.666331    0.106193    0.284620     0.005394
PD976   PD        0.100237    0.213128    0.284147     0.005394
PD977   PD        0.172284    0.143525    0.281486     0.005394
AU978   AU        0.171049    0.180882    0.311226     0.007504
PD979   PD        0.205747    0.145278    0.315067     0.005394
PD980   PD        0.207610    0.181996    0.282777     0.005394
AU981   AU        0.238184    0.144806    0.283260     0.007504
PD982   PD        0.238618    0.177984    0.316469     0.005394
PD983   PD        0.270984    0.144584    0.316695     0.005394
PD984   PD        0.268205    0.182395    0.285331     0.005394
PD985   PD        0.304047    0.143143    0.282502     0.005394
AU986   AU        0.301157    0.179679    0.314105     0.007504
AU987   AU        0.336308    0.146525    0.314697     0.007504
PD988   PD        0.337340    0.178785    0.284398     0.005394
PD989   PD        0.369963    0.144374    0.280416     0.005394
AU990   AU        0.369458    0.181650    0.314114     0.007504
AU991   AU        0.401869    0.146431    0.314904     0.007504
PD992   PD        0.402604    0.179803    0.283978     0.005394
AU993   AU        0.437227    0.145926    0.285416     0.007504
AU994   AU        0.435172    0.178933    0.316360     0.007504
PD995   PD        0.471163    0.143973    0.316903     0.005394
PD996   PD        0.469149    0.178242    0.285758     0.005394
AU997   AU        0.500756    0.143347    0.285186     0.007504
AU998   AU        0.502291    0.179561    0.314553     0.007504
AU999   AU        0.534813    0.143538    0.313844     0.007504
PD1000   PD        0.537121    0.180443    0.283952     0.005394
PD1001   PD        0.568610    0.147460    0.285611     0.005394
PD1002   PD        0.568509    0.181262    0.315824     0.005394
AU1003   AU        0.602569    0.143665    0.314214     0.007504
AU1004   AU        0.604558    0.180234    0.287619     0.007504
AU1005   AU        0.634552    0.144142    0.283811     0.007504
PD1006   PD        0.634912    0.179875    0.319336     0.005394
AU1007   AU        0.667826    0.145035    0.313098     0.007504
AU1008   AU        0.667251    0.179703    0.284988     0.007504
PD1009   PD        0.697791    0.137807    0.276677     0.005394
PD1010   PD        0.703727    0.179874    0.317550     0.005394
PD1011   PD        0.801748    0.213785    0.247719     0.005394
PD1012   PD        0.105784    0.249972    0.313581     0.005394
PD1013   PD        0.138420    0.217189    0.315603     0.005394
AU1014   AU        0.137673    0.248554    0.281674     0.007504
AU1015   AU        0.170865    0.216931    0.280990     0.007504
PD1016   PD        0.171150    0.253595    0.314092     0.005394
PD1017   PD        0.202576    0.217900    0.314130     0.005394
PD1018   PD        0.203580    0.248857    0.282267     0.005394
PD1019   PD        0.236220    0.212968    0.284397     0.005394
AU1020   AU        0.236994    0.253977    0.314588     0.007504
AU1021   AU        0.269508    0.215294    0.315612     0.007504
PD1022   PD        0.270467    0.250031    0.284307     0.005394
PD1023   PD        0.301203    0.216342    0.284849     0.005394
AU1024   AU        0.302161    0.251859    0.313538     0.007504
AU1025   AU        0.335216    0.214339    0.314502     0.007504
AU1026   AU        0.336267    0.250434    0.281346     0.007504
AU1027   AU        0.368468    0.217012    0.281888     0.007504
AU1028   AU        0.368816    0.249539    0.312987     0.007504
AU1029   AU        0.403176    0.215610    0.312936     0.007504
PD1030   PD        0.402339    0.249721    0.281709     0.005394
PD1031   PD        0.436343    0.214705    0.284166     0.005394
AU1032   AU        0.435628    0.249928    0.315776     0.007504
AU1033   AU        0.469656    0.217311    0.317249     0.007504
PD1034   PD        0.468586    0.251494    0.283150     0.005394
PD1035   PD        0.501319    0.212449    0.285046     0.005394
PD1036   PD        0.502969    0.252483    0.314577     0.005394
AU1037   AU        0.534613    0.216826    0.315704     0.007504
PD1038   PD        0.536581    0.251194    0.285527     0.005394
AU1039   AU        0.568842    0.214924    0.283191     0.007504
PD1040   PD        0.570628    0.249533    0.315429     0.005394
PD1041   PD        0.604378    0.214968    0.316425     0.005394
AU1042   AU        0.601181    0.247847    0.284761     0.007504
AU1043   AU        0.636040    0.214006    0.286393     0.007504
AU1044   AU        0.635330    0.249569    0.316031     0.007504
AU1045   AU        0.670065    0.215113    0.315602     0.007504
PD1046   PD        0.668233    0.251997    0.283925     0.005394
PD1047   PD        0.700976    0.214908    0.284802     0.005394
PD1048   PD        0.699777    0.252908    0.315003     0.005394
AU1049   AU        0.732713    0.216262    0.317209     0.007504
PD1050   PD        0.736367    0.247377    0.286564     0.005394
PD1051   PD        0.768408    0.251134    0.317205     0.005394
PD1052   PD        0.042303    0.286976    0.279482     0.005394
PD1053   PD        0.072973    0.320540    0.284421     0.005394
PD1054   PD        0.105979    0.286164    0.282577     0.005394
AU1055   AU        0.102574    0.323579    0.313873     0.007504
PD1056   PD        0.137013    0.285963    0.315847     0.005394
PD1057   PD        0.136356    0.321289    0.284149     0.005394
PD1058   PD        0.171753    0.284650    0.284019     0.005394
PD1059   PD        0.168084    0.322472    0.313092     0.005394
PD1060   PD        0.201425    0.283162    0.313281     0.005394
PD1061   PD        0.201925    0.321032    0.284864     0.005394
PD1062   PD        0.239355    0.285867    0.282871     0.005394
PD1063   PD        0.234055    0.321993    0.314599     0.005394
PD1064   PD        0.269694    0.288324    0.316239     0.005394
AU1065   AU        0.271096    0.323042    0.282227     0.007504
AU1066   AU        0.300243    0.285566    0.282201     0.007504
AU1067   AU        0.303160    0.322161    0.313516     0.007504
AU1068   AU        0.335148    0.285338    0.312275     0.007504
AU1069   AU        0.336034    0.322657    0.282137     0.007504
AU1070   AU        0.369480    0.286966    0.282302     0.007504
AU1071   AU        0.367353    0.322747    0.314430     0.007504
AU1072   AU        0.401748    0.285836    0.312775     0.007504
PD1073   PD        0.399665    0.319948    0.283150     0.005394
PD1074   PD        0.435918    0.284514    0.282707     0.005394
PD1075   PD        0.438931    0.320463    0.314475     0.005394
AU1076   AU        0.469728    0.285109    0.313516     0.007504
AU1077   AU        0.469069    0.322341    0.281240     0.007504
PD1078   PD        0.504808    0.288700    0.281477     0.005394
AU1079   AU        0.502412    0.321007    0.312315     0.007504
PD1080   PD        0.537165    0.286937    0.312634     0.005394
AU1081   AU        0.537724    0.323125    0.281598     0.007504
AU1082   AU        0.569975    0.285102    0.284252     0.007504
AU1083   AU        0.570570    0.323373    0.312727     0.007504
AU1084   AU        0.602228    0.285161    0.315920     0.007504
PD1085   PD        0.601896    0.320950    0.281093     0.005394
AU1086   AU        0.636144    0.284793    0.283919     0.007504
AU1087   AU        0.634376    0.321940    0.314322     0.007504
PD1088   PD        0.667597    0.288381    0.313092     0.005394
PD1089   PD        0.670117    0.323784    0.283820     0.005394
AU1090   AU        0.702334    0.285146    0.282182     0.007504
PD1091   PD        0.704326    0.322354    0.314249     0.005394
PD1092   PD        0.738140    0.284745    0.313991     0.005394
AU1093   AU        0.736439    0.322711    0.285496     0.007504
PD1094   PD        0.767590    0.285858    0.283292     0.005394
AU1095   AU        0.768342    0.323542    0.317281     0.007504
AU1096   AU        0.799427    0.284052    0.316573     0.007504
PD1097   PD        0.801279    0.323712    0.284202     0.005394
AU1098   AU        0.071787    0.357978    0.311621     0.007504
PD1099   PD        0.072818    0.397515    0.282907     0.005394
PD1100   PD        0.104229    0.359507    0.280599     0.005394
AU1101   AU        0.105406    0.392947    0.313225     0.007504
PD1102   PD        0.134964    0.355965    0.314048     0.005394
PD1103   PD        0.141212    0.395613    0.282440     0.005394
AU1104   AU        0.169844    0.356585    0.280854     0.007504
PD1105   PD        0.168473    0.391440    0.312005     0.005394
AU1106   AU        0.203283    0.359662    0.313220     0.007504
PD1107   PD        0.201750    0.393804    0.279671     0.005394
PD1108   PD        0.236957    0.358410    0.282981     0.005394
PD1109   PD        0.233274    0.392631    0.314607     0.005394
AU1110   AU        0.268972    0.357631    0.313251     0.007504
AU1111   AU        0.270275    0.393249    0.282460     0.007504
AU1112   AU        0.304051    0.358013    0.280913     0.007504
PD1113   PD        0.302167    0.392449    0.314897     0.005394
AU1114   AU        0.336045    0.358710    0.313180     0.007504
AU1115   AU        0.338500    0.393678    0.281283     0.007504
AU1116   AU        0.368371    0.354941    0.283017     0.007504
PD1117   PD        0.371364    0.392663    0.313638     0.005394
AU1118   AU        0.401849    0.357516    0.314096     0.007504
AU1119   AU        0.400301    0.393139    0.283161     0.007504
AU1120   AU        0.434379    0.359505    0.282205     0.007504
AU1121   AU        0.436602    0.393926    0.313504     0.007504
AU1122   AU        0.469442    0.357438    0.313759     0.007504
AU1123   AU        0.468447    0.394063    0.282820     0.007504
AU1124   AU        0.501976    0.358113    0.282383     0.007504
AU1125   AU        0.502912    0.394502    0.312706     0.007504
AU1126   AU        0.535545    0.359246    0.314163     0.007504
AU1127   AU        0.536615    0.393344    0.282714     0.007504
AU1128   AU        0.569367    0.360684    0.281693     0.007504
AU1129   AU        0.567877    0.395350    0.313130     0.007504
PD1130   PD        0.604702    0.358115    0.312874     0.005394
PD1131   PD        0.602466    0.395689    0.282267     0.005394
PD1132   PD        0.636394    0.355175    0.283002     0.005394
PD1133   PD        0.634926    0.395466    0.313615     0.005394
PD1134   PD        0.670150    0.356349    0.315727     0.005394
PD1135   PD        0.668196    0.391462    0.282762     0.005394
PD1136   PD        0.700186    0.356649    0.283630     0.005394
PD1137   PD        0.701130    0.393986    0.315913     0.005394
AU1138   AU        0.735865    0.357804    0.313618     0.007504
AU1139   AU        0.734327    0.392608    0.284903     0.007504
AU1140   AU        0.768699    0.357598    0.285646     0.007504
AU1141   AU        0.766322    0.395004    0.315913     0.007504
PD1142   PD        0.798703    0.358401    0.316570     0.005394
AU1143   AU        0.802245    0.392771    0.286683     0.007504
PD1144   PD        0.073765    0.427685    0.314428     0.005394
PD1145   PD        0.074854    0.466990    0.283390     0.005394
AU1146   AU        0.106061    0.430103    0.284676     0.007504
PD1147   PD        0.106825    0.467465    0.313538     0.005394
PD1148   PD        0.139611    0.427429    0.313639     0.005394
AU1149   AU        0.138140    0.466393    0.283179     0.007504
PD1150   PD        0.168977    0.432696    0.282215     0.005394
PD1151   PD        0.167707    0.467212    0.315364     0.005394
PD1152   PD        0.201724    0.427412    0.315222     0.005394
PD1153   PD        0.201148    0.467285    0.280773     0.005394
PD1154   PD        0.236441    0.426806    0.282343     0.005394
PD1155   PD        0.239536    0.467676    0.312754     0.005394
AU1156   AU        0.270099    0.427309    0.314011     0.007504
PD1157   PD        0.269468    0.467024    0.279435     0.005394
PD1158   PD        0.301865    0.431577    0.281223     0.005394
PD1159   PD        0.304677    0.462770    0.313493     0.005394
PD1160   PD        0.337151    0.428516    0.312374     0.005394
AU1161   AU        0.336307    0.465568    0.281026     0.007504
AU1162   AU        0.371011    0.429938    0.282852     0.007504
AU1163   AU        0.368991    0.465515    0.313383     0.007504
AU1164   AU        0.404115    0.429867    0.313971     0.007504
AU1165   AU        0.404894    0.465877    0.282774     0.007504
AU1166   AU        0.436992    0.430309    0.282510     0.007504
AU1167   AU        0.436114    0.465354    0.314100     0.007504
AU1168   AU        0.469996    0.429480    0.312927     0.007504
AU1169   AU        0.468886    0.465381    0.282394     0.007504
AU1170   AU        0.502284    0.429827    0.281115     0.007504
AU1171   AU        0.501370    0.465469    0.311607     0.007504
PD1172   PD        0.534312    0.431132    0.314315     0.005394
AU1173   AU        0.537799    0.465413    0.281522     0.007504
AU1174   AU        0.568263    0.429322    0.281200     0.007504
AU1175   AU        0.569000    0.464808    0.315296     0.007504
PD1176   PD        0.601221    0.430135    0.315508     0.005394
AU1177   AU        0.601483    0.466119    0.282085     0.007504
AU1178   AU        0.635576    0.431454    0.281956     0.007504
AU1179   AU        0.635121    0.465160    0.315568     0.007504
PD1180   PD        0.671458    0.431292    0.312986     0.005394
PD1181   PD        0.667700    0.466014    0.282555     0.005394
PD1182   PD        0.702419    0.428636    0.284178     0.005394
PD1183   PD        0.702630    0.466969    0.313919     0.005394
PD1184   PD        0.734071    0.429383    0.314924     0.005394
PD1185   PD        0.734119    0.467400    0.284663     0.005394
AU1186   AU        0.766252    0.428882    0.285842     0.007504
PD1187   PD        0.768364    0.467077    0.316934     0.005394
AU1188   AU        0.800244    0.429703    0.315997     0.007504
PD1189   PD        0.801478    0.467231    0.285016     0.005394
AU1190   AU        0.070352    0.499275    0.315122     0.007504
PD1191   PD        0.073238    0.532191    0.283163     0.005394
PD1192   PD        0.105955    0.500488    0.283275     0.005394
AU1193   AU        0.106103    0.535917    0.314743     0.007504
PD1194   PD        0.138455    0.501484    0.315237     0.005394
AU1195   AU        0.137167    0.535576    0.282745     0.007504
AU1196   AU        0.168056    0.503221    0.282707     0.007504
PD1197   PD        0.171381    0.536580    0.314518     0.005394
PD1198   PD        0.202289    0.500672    0.315884     0.005394
AU1199   AU        0.202113    0.536398    0.282106     0.007504
AU1200   AU        0.236149    0.502272    0.281699     0.007504
PD1201   PD        0.233948    0.537554    0.312227     0.005394
PD1202   PD        0.270429    0.503435    0.311696     0.005394
PD1203   PD        0.270548    0.536309    0.280434     0.005394
PD1204   PD        0.304068    0.498554    0.280165     0.005394
PD1205   PD        0.303148    0.539141    0.312760     0.005394
PD1206   PD        0.335497    0.502085    0.311051     0.005394
AU1207   AU        0.335706    0.537613    0.281275     0.007504
AU1208   AU        0.372152    0.500173    0.281511     0.007504
AU1209   AU        0.368834    0.538167    0.312117     0.007504
AU1210   AU        0.403063    0.502645    0.314063     0.007504
AU1211   AU        0.402910    0.536600    0.283354     0.007504
AU1212   AU        0.433354    0.501384    0.281503     0.007504
PD1213   PD        0.436695    0.537516    0.311797     0.005394
AU1214   AU        0.470650    0.500398    0.312918     0.007504
AU1215   AU        0.468824    0.535085    0.281667     0.007504
AU1216   AU        0.503806    0.500664    0.279583     0.007504
AU1217   AU        0.502910    0.535799    0.310503     0.007504
AU1218   AU        0.536422    0.499603    0.312871     0.007504
AU1219   AU        0.536339    0.535873    0.281484     0.007504
PD1220   PD        0.568096    0.501386    0.280357     0.005394
PD1221   PD        0.569480    0.534776    0.314644     0.005394
AU1222   AU        0.601938    0.498903    0.314567     0.007504
AU1223   AU        0.602109    0.534267    0.281659     0.007504
PD1224   PD        0.634835    0.500928    0.282627     0.005394
PD1225   PD        0.636122    0.536180    0.315633     0.005394
PD1226   PD        0.666996    0.500910    0.314329     0.005394
AU1227   AU        0.668968    0.536802    0.282075     0.007504
PD1228   PD        0.699845    0.502180    0.286038     0.005394
PD1229   PD        0.699929    0.534923    0.316398     0.005394
AU1230   AU        0.734607    0.501663    0.313657     0.007504
PD1231   PD        0.734472    0.534932    0.283285     0.005394
AU1232   AU        0.768012    0.500849    0.284409     0.007504
AU1233   AU        0.767981    0.535443    0.314467     0.007504
PD1234   PD        0.801019    0.501540    0.316038     0.005394
PD1235   PD        0.800891    0.535673    0.283130     0.005394
AU1236   AU        0.073022    0.570013    0.312183     0.007504
AU1237   AU        0.105065    0.571715    0.280600     0.007504
AU1238   AU        0.106057    0.604131    0.313285     0.007504
AU1239   AU        0.138591    0.570991    0.313527     0.007504
AU1240   AU        0.137623    0.606650    0.282272     0.007504
AU1241   AU        0.168930    0.571802    0.281841     0.007504
PD1242   PD        0.168799    0.606632    0.312905     0.005394
AU1243   AU        0.202624    0.572253    0.312195     0.007504
AU1244   AU        0.203614    0.604905    0.281879     0.007504
PD1245   PD        0.235409    0.572207    0.278970     0.005394
AU1246   AU        0.235759    0.608497    0.312192     0.007504
AU1247   AU        0.267701    0.572800    0.310919     0.007504
AU1248   AU        0.268066    0.607425    0.280590     0.007504
AU1249   AU        0.304024    0.573256    0.281675     0.007504
AU1250   AU        0.302394    0.606276    0.311418     0.007504
PD1251   PD        0.336083    0.572663    0.311814     0.005394
AU1252   AU        0.335955    0.609267    0.280274     0.007504
AU1253   AU        0.369681    0.570712    0.280719     0.007504
PD1254   PD        0.368983    0.605807    0.313688     0.005394
PD1255   PD        0.400473    0.571961    0.314326     0.005394
AU1256   AU        0.402312    0.605191    0.282359     0.007504
AU1257   AU        0.436032    0.570262    0.282809     0.007504
PD1258   PD        0.438676    0.609508    0.310555     0.005394
AU1259   AU        0.470322    0.569342    0.313050     0.007504
PD1260   PD        0.469422    0.608891    0.282069     0.005394
AU1261   AU        0.503031    0.570778    0.279857     0.007504
AU1262   AU        0.503568    0.606938    0.309829     0.007504
PD1263   PD        0.536007    0.568189    0.313112     0.005394
AU1264   AU        0.537513    0.608704    0.281374     0.007504
AU1265   AU        0.569946    0.571090    0.281615     0.007504
PD1266   PD        0.565890    0.608075    0.315654     0.005394
PD1267   PD        0.603435    0.573091    0.314570     0.005394
PD1268   PD        0.602055    0.607643    0.283706     0.005394
PD1269   PD        0.635521    0.573816    0.280394     0.005394
PD1270   PD        0.634292    0.605078    0.317021     0.005394
PD1271   PD        0.669204    0.570823    0.313782     0.005394
PD1272   PD        0.670528    0.606564    0.282654     0.005394
PD1273   PD        0.703016    0.571315    0.284421     0.005394
PD1274   PD        0.701814    0.608703    0.314858     0.005394
AU1275   AU        0.731759    0.570787    0.315735     0.007504
AU1276   AU        0.735551    0.604621    0.281581     0.007504
PD1277   PD        0.767591    0.570679    0.285804     0.005394
AU1278   AU        0.765209    0.605784    0.316218     0.007504
PD1279   PD        0.832895    0.572851    0.348687     0.005394
AU1280   AU        0.136903    0.640642    0.313128     0.007504
PD1281   PD        0.139537    0.674167    0.281987     0.005394
PD1282   PD        0.167667    0.645696    0.280359     0.005394
AU1283   AU        0.171471    0.677434    0.312951     0.007504
PD1284   PD        0.203680    0.640949    0.310607     0.005394
AU1285   AU        0.201897    0.675731    0.281607     0.007504
AU1286   AU        0.235419    0.641538    0.279959     0.007504
PD1287   PD        0.236151    0.675084    0.314239     0.005394
AU1288   AU        0.269131    0.641941    0.313997     0.007504
AU1289   AU        0.270164    0.675343    0.282220     0.007504
AU1290   AU        0.303805    0.641621    0.281124     0.007504
PD1291   PD        0.302325    0.677031    0.311519     0.005394
PD1292   PD        0.337840    0.642027    0.314225     0.005394
AU1293   AU        0.336425    0.677455    0.279605     0.007504
AU1294   AU        0.369072    0.642953    0.280469     0.007504
PD1295   PD        0.367947    0.678606    0.310284     0.005394
PD1296   PD        0.402475    0.640894    0.314713     0.005394
AU1297   AU        0.401100    0.679216    0.282749     0.007504
PD1298   PD        0.436610    0.642970    0.279871     0.005394
PD1299   PD        0.437691    0.674296    0.314290     0.005394
PD1300   PD        0.470969    0.643781    0.312565     0.005394
PD1301   PD        0.467749    0.680010    0.281947     0.005394
AU1302   AU        0.501615    0.645076    0.280794     0.007504
PD1303   PD        0.500430    0.678399    0.314027     0.005394
PD1304   PD        0.533936    0.646914    0.311253     0.005394
PD1305   PD        0.535534    0.679447    0.278923     0.005394
PD1306   PD        0.571844    0.643584    0.281493     0.005394
PD1307   PD        0.569034    0.679191    0.315444     0.005394
PD1308   PD        0.602009    0.641953    0.313002     0.005394
PD1309   PD        0.601136    0.679256    0.280306     0.005394
PD1310   PD        0.635332    0.641790    0.282730     0.005394
PD1311   PD        0.634661    0.677507    0.314571     0.005394
PD1312   PD        0.667949    0.643642    0.314626     0.005394
PD1313   PD        0.668741    0.676837    0.283641     0.005394
AU1314   AU        0.703638    0.642896    0.280449     0.007504
AU1315   AU        0.703630    0.680344    0.311312     0.007504
PD1316   PD        0.733794    0.639292    0.312917     0.005394
AU1317   AU        0.737479    0.672703    0.283194     0.007504
PD1318   PD        0.174247    0.753281    0.246655     0.005394
PD1319   PD        0.202797    0.711420    0.312088     0.005394
PD1320   PD        0.199303    0.746756    0.281583     0.005394
AU1321   AU        0.235662    0.711973    0.282355     0.007504
AU1322   AU        0.236770    0.746864    0.311189     0.007504
PD1323   PD        0.270019    0.711613    0.313536     0.005394
AU1324   AU        0.270171    0.746442    0.281665     0.007504
AU1325   AU        0.303405    0.714024    0.282298     0.007504
AU1326   AU        0.301302    0.748620    0.313736     0.007504
AU1327   AU        0.336286    0.713042    0.311695     0.007504
PD1328   PD        0.334020    0.747208    0.279599     0.005394
PD1329   PD        0.367627    0.713186    0.281645     0.005394
PD1330   PD        0.369851    0.751240    0.313780     0.005394
PD1331   PD        0.402907    0.711279    0.311275     0.005394
AU1332   AU        0.402287    0.748445    0.282134     0.007504
AU1333   AU        0.435966    0.714489    0.282609     0.007504
AU1334   AU        0.434214    0.748811    0.313066     0.007504
PD1335   PD        0.468959    0.713145    0.316670     0.005394
PD1336   PD        0.466391    0.751531    0.281903     0.005394
PD1337   PD        0.499742    0.715199    0.283014     0.005394
AU1338   AU        0.499508    0.749505    0.314744     0.007504
PD1339   PD        0.533126    0.715994    0.312691     0.005394
PD1340   PD        0.533616    0.749094    0.283266     0.005394
AU1341   AU        0.568746    0.712433    0.282835     0.007504
PD1342   PD        0.567505    0.747410    0.316985     0.005394
AU1343   AU        0.601544    0.712214    0.313389     0.007504
AU1344   AU        0.601260    0.748316    0.282062     0.007504
AU1345   AU        0.634520    0.714215    0.282249     0.007504
PD1346   PD        0.636265    0.753053    0.312764     0.005394
AU1347   AU        0.668472    0.711898    0.311820     0.007504
PD1348   PD        0.666518    0.745650    0.283859     0.005394
PD1349   PD        0.703913    0.714912    0.281368     0.005394
AU1350   AU        0.270125    0.783228    0.313093     0.007504
AU1351   AU        0.300492    0.780867    0.281838     0.007504
PD1352   PD        0.302016    0.817859    0.313906     0.005394
PD1353   PD        0.336856    0.784403    0.312674     0.005394
PD1354   PD        0.332912    0.816947    0.280191     0.005394
PD1355   PD        0.367616    0.785407    0.280646     0.005394
PD1356   PD        0.400046    0.851526    0.311311     0.005394
AU1357   AU        0.400634    0.785428    0.312854     0.007504
AU1358   AU        0.438858    0.857187    0.284703     0.007504
AU1359   AU        0.431909    0.783188    0.280984     0.007504
AU1360   AU        0.435557    0.819460    0.310870     0.007504
PD1361   PD        0.465195    0.782680    0.309777     0.005394
AU1362   AU        0.468656    0.817726    0.281464     0.007504
PD1363   PD        0.502045    0.782532    0.279382     0.005394
AU1364   AU        0.501734    0.817547    0.312720     0.007504
AU1365   AU        0.534455    0.782423    0.314584     0.007504
PD1366   PD        0.533638    0.818830    0.284029     0.005394
PD1367   PD        0.566881    0.783187    0.282758     0.005394
PD1368   PD        0.570579    0.819523    0.314123     0.005394
AU1369   AU        0.598589    0.781684    0.312742     0.007504
PD1370   PD        0.269265    0.042926    0.343714     0.005394
PD1371   PD        0.303550    0.041966    0.377355     0.005394
AU1372   AU        0.337480    0.039609    0.344791     0.007504
PD1373   PD        0.370691    0.038763    0.376383     0.005394
PD1374   PD        0.402127    0.004735    0.377121     0.005394
AU1375   AU        0.407133    0.036963    0.343946     0.007504
PD1376   PD        0.439514    0.002369    0.343580     0.005394
AU1377   AU        0.435847    0.039888    0.377429     0.007504
PD1378   PD        0.469012    0.001158    0.379339     0.005394
PD1379   PD        0.468192    0.039294    0.346741     0.005394
PD1380   PD        0.503351    0.036464    0.376664     0.005394
AU1381   AU        0.536433    0.037934    0.345268     0.007504
PD1382   PD        0.567470    0.038799    0.377254     0.005394
PD1383   PD        0.599432    0.039037    0.347589     0.005394
PD1384   PD        0.137211    0.111144    0.345548     0.005394
AU1385   AU        0.202043    0.074582    0.377756     0.007504
PD1386   PD        0.207244    0.108023    0.346612     0.005394
PD1387   PD        0.170521    0.074343    0.344409     0.005394
AU1388   AU        0.236627    0.111855    0.380678     0.007504
PD1389   PD        0.271778    0.077086    0.378780     0.005394
PD1390   PD        0.268216    0.110423    0.345861     0.005394
AU1391   AU        0.302252    0.076346    0.346433     0.007504
AU1392   AU        0.305212    0.109781    0.377263     0.007504
PD1393   PD        0.337242    0.076093    0.376595     0.005394
AU1394   AU        0.337672    0.111625    0.346494     0.007504
AU1395   AU        0.371750    0.073447    0.348111     0.007504
PD1396   PD        0.369396    0.109905    0.376795     0.005394
PD1397   PD        0.403843    0.073231    0.378133     0.005394
PD1398   PD        0.401282    0.110468    0.347452     0.005394
AU1399   AU        0.436904    0.075378    0.346101     0.007504
PD1400   PD        0.433948    0.107826    0.380051     0.005394
AU1401   AU        0.469010    0.075029    0.377661     0.007504
AU1402   AU        0.470265    0.108020    0.347007     0.007504
PD1403   PD        0.501752    0.074612    0.346799     0.005394
AU1404   AU        0.504824    0.111338    0.376289     0.007504
AU1405   AU        0.536097    0.073343    0.376137     0.007504
AU1406   AU        0.535474    0.108784    0.344995     0.007504
AU1407   AU        0.567805    0.074497    0.346906     0.007504
AU1408   AU        0.569222    0.110478    0.376961     0.007504
AU1409   AU        0.601289    0.075051    0.378520     0.007504
PD1410   PD        0.601613    0.110906    0.346630     0.005394
AU1411   AU        0.633271    0.073581    0.346331     0.007504
AU1412   AU        0.632916    0.110247    0.375732     0.007504
PD1413   PD        0.666329    0.071892    0.378569     0.005394
AU1414   AU        0.667254    0.107559    0.345146     0.007504
PD1415   PD        0.699245    0.109894    0.378751     0.005394
PD1416   PD        0.104997    0.178976    0.372014     0.005394
PD1417   PD        0.138084    0.142509    0.376115     0.005394
PD1418   PD        0.136687    0.178986    0.345637     0.005394
PD1419   PD        0.170514    0.139735    0.344457     0.005394
AU1420   AU        0.170597    0.178577    0.377231     0.007504
PD1421   PD        0.203394    0.145145    0.377054     0.005394
AU1422   AU        0.203114    0.178868    0.345015     0.007504
PD1423   PD        0.238957    0.144982    0.349662     0.005394
AU1424   AU        0.233937    0.180900    0.377810     0.007504
AU1425   AU        0.269456    0.145353    0.378222     0.007504
AU1426   AU        0.270138    0.179209    0.347203     0.007504
AU1427   AU        0.302583    0.143560    0.346245     0.007504
AU1428   AU        0.303614    0.178708    0.378698     0.007504
AU1429   AU        0.337630    0.143803    0.377955     0.007504
PD1430   PD        0.335368    0.178732    0.345003     0.005394
PD1431   PD        0.370396    0.144874    0.345671     0.005394
AU1432   AU        0.370395    0.180214    0.376725     0.007504
PD1433   PD        0.401540    0.144865    0.375232     0.005394
AU1434   AU        0.401458    0.182994    0.345234     0.007504
AU1435   AU        0.436590    0.144573    0.346408     0.007504
AU1436   AU        0.436181    0.179435    0.376128     0.007504
AU1437   AU        0.470657    0.144306    0.376668     0.007504
AU1438   AU        0.468399    0.178996    0.346250     0.007504
AU1439   AU        0.504453    0.145312    0.346750     0.007504
PD1440   PD        0.502601    0.182138    0.376901     0.005394
AU1441   AU        0.536819    0.145598    0.376229     0.007504
PD1442   PD        0.535204    0.179405    0.345178     0.005394
PD1443   PD        0.567317    0.144784    0.346133     0.005394
AU1444   AU        0.569482    0.180068    0.377928     0.007504
AU1445   AU        0.601109    0.145053    0.376512     0.007504
PD1446   PD        0.600683    0.180075    0.346734     0.005394
AU1447   AU        0.636235    0.143339    0.346238     0.007504
AU1448   AU        0.634957    0.180426    0.377690     0.007504
PD1449   PD        0.665527    0.144730    0.378648     0.005394
PD1450   PD        0.667496    0.178588    0.347772     0.005394
PD1451   PD        0.733497    0.144908    0.320720     0.005394
PD1452   PD        0.699355    0.180444    0.377381     0.005394
PD1453   PD        0.736202    0.146370    0.378854     0.005394
AU1454   AU        0.736578    0.181647    0.348436     0.007504
PD1455   PD        0.769265    0.182725    0.379488     0.005394
PD1456   PD        0.071863    0.253309    0.342330     0.005394
PD1457   PD        0.105085    0.212908    0.343301     0.005394
PD1458   PD        0.103123    0.248527    0.377228     0.005394
PD1459   PD        0.138143    0.217513    0.376531     0.005394
PD1460   PD        0.135525    0.253333    0.344273     0.005394
PD1461   PD        0.166701    0.215812    0.343460     0.005394
PD1462   PD        0.171081    0.250720    0.376603     0.005394
PD1463   PD        0.204546    0.214478    0.378225     0.005394
AU1464   AU        0.202741    0.250185    0.347005     0.007504
AU1465   AU        0.236045    0.214955    0.345831     0.007504
AU1466   AU        0.235277    0.249602    0.377213     0.007504
PD1467   PD        0.269884    0.214208    0.378745     0.005394
AU1468   AU        0.270577    0.249045    0.344003     0.007504
PD1469   PD        0.304271    0.214639    0.346016     0.005394
PD1470   PD        0.303598    0.248419    0.376469     0.005394
PD1471   PD        0.336235    0.212126    0.376063     0.005394
AU1472   AU        0.337258    0.251625    0.346236     0.007504
AU1473   AU        0.367570    0.214505    0.345710     0.007504
AU1474   AU        0.369385    0.249809    0.376747     0.007504
AU1475   AU        0.401969    0.214367    0.376195     0.007504
AU1476   AU        0.401777    0.249672    0.344794     0.007504
AU1477   AU        0.436407    0.215253    0.346067     0.007504
PD1478   PD        0.435522    0.250227    0.375825     0.005394
AU1479   AU        0.469208    0.214945    0.376379     0.007504
PD1480   PD        0.468683    0.252900    0.346532     0.005394
AU1481   AU        0.502744    0.216016    0.347652     0.007504
AU1482   AU        0.502474    0.251890    0.377178     0.007504
AU1483   AU        0.534888    0.214894    0.377617     0.007504
PD1484   PD        0.537263    0.250364    0.346946     0.005394
PD1485   PD        0.569803    0.213760    0.347968     0.005394
AU1486   AU        0.570538    0.249742    0.378838     0.007504
AU1487   AU        0.603873    0.214115    0.376662     0.007504
AU1488   AU        0.602214    0.251144    0.347695     0.007504
PD1489   PD        0.638065    0.211941    0.345587     0.005394
AU1490   AU        0.635705    0.249971    0.378451     0.007504
PD1491   PD        0.667214    0.214862    0.377889     0.005394
PD1492   PD        0.669655    0.250176    0.347192     0.005394
AU1493   AU        0.702645    0.215808    0.347161     0.007504
AU1494   AU        0.703105    0.251913    0.377412     0.007504
PD1495   PD        0.732903    0.217632    0.381242     0.005394
AU1496   AU        0.736659    0.253330    0.345894     0.007504
PD1497   PD        0.766550    0.218303    0.347887     0.005394
PD1498   PD        0.769400    0.251292    0.380778     0.005394
PD1499   PD        0.797865    0.250975    0.349645     0.005394
AU1500   AU        0.071763    0.285495    0.374703     0.007504
PD1501   PD        0.070930    0.320209    0.342237     0.005394
PD1502   PD        0.105286    0.287830    0.345332     0.005394
AU1503   AU        0.104712    0.319294    0.379156     0.007504
AU1504   AU        0.137073    0.283840    0.376294     0.007504
AU1505   AU        0.137902    0.322170    0.344316     0.007504
AU1506   AU        0.171999    0.286115    0.346034     0.007504
AU1507   AU        0.169247    0.320707    0.375493     0.007504
PD1508   PD        0.201823    0.285691    0.376687     0.005394
AU1509   AU        0.202520    0.321447    0.344746     0.007504
PD1510   PD        0.236861    0.285422    0.346143     0.005394
AU1511   AU        0.234915    0.321605    0.374774     0.007504
PD1512   PD        0.268484    0.287651    0.375715     0.005394
AU1513   AU        0.267455    0.321540    0.344516     0.007504
PD1514   PD        0.302627    0.287416    0.344553     0.005394
AU1515   AU        0.302386    0.322564    0.376367     0.007504
PD1516   PD        0.337054    0.286043    0.377067     0.005394
AU1517   AU        0.335581    0.320957    0.345702     0.007504
AU1518   AU        0.370312    0.285893    0.343858     0.007504
AU1519   AU        0.371684    0.318366    0.376073     0.007504
PD1520   PD        0.402206    0.283285    0.376956     0.005394
PD1521   PD        0.402552    0.320232    0.342688     0.005394
AU1522   AU        0.436607    0.284445    0.346736     0.007504
AU1523   AU        0.433661    0.322820    0.379658     0.007504
AU1524   AU        0.467887    0.285913    0.377859     0.007504
AU1525   AU        0.470526    0.320666    0.347266     0.007504
PD1526   PD        0.502796    0.287144    0.346159     0.005394
AU1527   AU        0.501665    0.320684    0.378470     0.007504
AU1528   AU        0.534987    0.286618    0.377436     0.007504
PD1529   PD        0.537881    0.321611    0.345816     0.005394
PD1530   PD        0.569660    0.287530    0.347107     0.005394
PD1531   PD        0.571738    0.321535    0.377814     0.005394
AU1532   AU        0.602919    0.284308    0.377832     0.007504
PD1533   PD        0.603905    0.324295    0.345530     0.005394
PD1534   PD        0.635250    0.286225    0.346667     0.005394
PD1535   PD        0.636071    0.321624    0.378341     0.005394
PD1536   PD        0.667705    0.283287    0.377412     0.005394
PD1537   PD        0.669505    0.323144    0.345240     0.005394
PD1538   PD        0.703177    0.286545    0.345782     0.005394
AU1539   AU        0.703270    0.323098    0.377271     0.007504
PD1540   PD        0.735544    0.287461    0.377387     0.005394
PD1541   PD        0.735122    0.320760    0.345860     0.005394
AU1542   AU        0.770080    0.287649    0.347437     0.007504
AU1543   AU        0.765059    0.323380    0.378683     0.007504
AU1544   AU        0.799460    0.290000    0.377780     0.007504
PD1545   PD        0.798886    0.325749    0.346111     0.005394
PD1546   PD        0.037512    0.393988    0.371505     0.005394
PD1547   PD        0.039456    0.356035    0.341794     0.005394
AU1548   AU        0.071424    0.395560    0.344019     0.007504
PD1549   PD        0.101346    0.356122    0.345941     0.005394
PD1550   PD        0.105735    0.391276    0.372499     0.005394
PD1551   PD        0.134656    0.357758    0.377803     0.005394
PD1552   PD        0.138854    0.390839    0.343959     0.005394
AU1553   AU        0.170162    0.355717    0.345340     0.007504
AU1554   AU        0.168256    0.392360    0.375660     0.007504
AU1555   AU        0.201729    0.355692    0.377610     0.007504
AU1556   AU        0.200431    0.393366    0.344230     0.007504
AU1557   AU        0.234872    0.356349    0.346309     0.007504
PD1558   PD        0.233233    0.392989    0.375123     0.005394
AU1559   AU        0.269251    0.355820    0.377568     0.007504
AU1560   AU        0.268779    0.390531    0.346684     0.007504
AU1561   AU        0.302090    0.357953    0.346377     0.007504
AU1562   AU        0.302864    0.393260    0.378013     0.007504
AU1563   AU        0.337340    0.356455    0.375752     0.007504
AU1564   AU        0.335240    0.392195    0.346954     0.007504
AU1565   AU        0.370159    0.355290    0.346663     0.007504
AU1566   AU        0.372668    0.391369    0.376744     0.007504
PD1567   PD        0.400851    0.358421    0.379482     0.005394
AU1568   AU        0.403551    0.390831    0.344872     0.007504
AU1569   AU        0.437248    0.356245    0.345950     0.007504
AU1570   AU        0.435483    0.393802    0.377988     0.007504
AU1571   AU        0.468042    0.358026    0.378269     0.007504
AU1572   AU        0.470448    0.392369    0.344906     0.007504
AU1573   AU        0.504480    0.357012    0.344553     0.007504
AU1574   AU        0.502074    0.393718    0.376425     0.007504
AU1575   AU        0.536769    0.357545    0.377275     0.007504
AU1576   AU        0.536479    0.396279    0.344105     0.007504
PD1577   PD        0.568536    0.359280    0.345797     0.005394
AU1578   AU        0.567925    0.395307    0.376311     0.007504
PD1579   PD        0.602456    0.357620    0.375517     0.005394
PD1580   PD        0.600515    0.394584    0.343933     0.005394
PD1581   PD        0.637232    0.357329    0.343055     0.005394
AU1582   AU        0.635730    0.394814    0.377041     0.007504
PD1583   PD        0.666667    0.359172    0.375429     0.005394
PD1584   PD        0.669982    0.392385    0.345373     0.005394
AU1585   AU        0.702748    0.355204    0.344197     0.007504
AU1586   AU        0.700581    0.391066    0.375600     0.007504
AU1587   AU        0.733834    0.357771    0.375886     0.007504
AU1588   AU        0.733662    0.391184    0.346892     0.007504
PD1589   PD        0.767494    0.356661    0.349512     0.005394
PD1590   PD        0.767082    0.394411    0.378232     0.005394
PD1591   PD        0.802469    0.358472    0.376843     0.005394
AU1592   AU        0.797825    0.395651    0.347535     0.007504
AU1593   AU        0.830866    0.394605    0.376767     0.007504
PD1594   PD        0.038218    0.429629    0.344669     0.005394
PD1595   PD        0.041609    0.460503    0.376596     0.005394
PD1596   PD        0.070635    0.424843    0.376504     0.005394
PD1597   PD        0.073464    0.461764    0.345076     0.005394
AU1598   AU        0.106881    0.428338    0.344580     0.007504
AU1599   AU        0.104106    0.460405    0.376331     0.007504
PD1600   PD        0.137232    0.428032    0.376610     0.005394
PD1601   PD        0.135233    0.464161    0.345713     0.005394
AU1602   AU        0.169109    0.429239    0.345204     0.007504
AU1603   AU        0.170789    0.465380    0.375102     0.007504
PD1604   PD        0.201579    0.427004    0.377473     0.005394
AU1605   AU        0.204887    0.462903    0.342377     0.007504
AU1606   AU        0.237696    0.429450    0.346326     0.007504
AU1607   AU        0.235158    0.465106    0.376552     0.007504
PD1608   PD        0.270926    0.431572    0.377219     0.005394
AU1609   AU        0.267025    0.465644    0.344974     0.007504
PD1610   PD        0.301942    0.428615    0.347197     0.005394
AU1611   AU        0.304776    0.465682    0.376000     0.007504
AU1612   AU        0.336693    0.428954    0.377830     0.007504
PD1613   PD        0.335820    0.464000    0.345227     0.005394
PD1614   PD        0.368730    0.426142    0.345914     0.005394
AU1615   AU        0.369523    0.465067    0.376717     0.007504
AU1616   AU        0.404212    0.427621    0.377965     0.007504
AU1617   AU        0.402383    0.465429    0.345168     0.007504
AU1618   AU        0.437535    0.429554    0.345060     0.007504
AU1619   AU        0.436870    0.466737    0.375138     0.007504
AU1620   AU        0.469906    0.427099    0.376915     0.007504
AU1621   AU        0.469142    0.464128    0.343342     0.007504
AU1622   AU        0.502190    0.430271    0.346241     0.007504
AU1623   AU        0.501874    0.465085    0.376843     0.007504
AU1624   AU        0.536571    0.431037    0.376576     0.007504
AU1625   AU        0.534933    0.466177    0.345729     0.007504
AU1626   AU        0.567961    0.430486    0.345081     0.007504
AU1627   AU        0.568880    0.465440    0.377030     0.007504
AU1628   AU        0.601901    0.426887    0.376132     0.007504
AU1629   AU        0.601848    0.464018    0.348024     0.007504
AU1630   AU        0.636670    0.427416    0.346391     0.007504
AU1631   AU        0.635766    0.463227    0.376751     0.007504
AU1632   AU        0.670581    0.430602    0.377087     0.007504
PD1633   PD        0.669714    0.463020    0.344135     0.005394
PD1634   PD        0.702046    0.431297    0.346111     0.005394
PD1635   PD        0.700464    0.467230    0.379447     0.005394
PD1636   PD        0.731524    0.428773    0.378212     0.005394
AU1637   AU        0.732858    0.467105    0.344377     0.007504
AU1638   AU        0.764938    0.428763    0.347754     0.007504
AU1639   AU        0.765289    0.464477    0.376671     0.007504
AU1640   AU        0.797940    0.430073    0.379952     0.007504
AU1641   AU        0.800592    0.463025    0.346114     0.007504
PD1642   PD        0.834214    0.429329    0.345982     0.005394
PD1643   PD        0.868131    0.510092    0.381405     0.005394
AU1644   AU        0.071177    0.499561    0.376426     0.007504
AU1645   AU        0.070499    0.535850    0.345410     0.007504
PD1646   PD        0.105111    0.499335    0.346608     0.005394
PD1647   PD        0.106222    0.532630    0.377187     0.005394
PD1648   PD        0.137646    0.496428    0.379488     0.005394
AU1649   AU        0.136757    0.539447    0.346333     0.007504
PD1650   PD        0.171139    0.503346    0.344159     0.005394
AU1651   AU        0.169955    0.536577    0.375767     0.007504
PD1652   PD        0.202751    0.500103    0.375084     0.005394
PD1653   PD        0.205044    0.536856    0.343093     0.005394
AU1654   AU        0.234390    0.500764    0.344423     0.007504
PD1655   PD        0.237303    0.534412    0.376657     0.005394
AU1656   AU        0.269213    0.497806    0.375967     0.007504
PD1657   PD        0.268451    0.534875    0.344200     0.005394
PD1658   PD        0.301494    0.498232    0.344792     0.005394
AU1659   AU        0.300560    0.534532    0.375806     0.007504
AU1660   AU        0.336637    0.499716    0.376450     0.007504
AU1661   AU        0.334406    0.534737    0.343991     0.007504
AU1662   AU        0.369097    0.500318    0.343368     0.007504
AU1663   AU        0.370161    0.535022    0.375319     0.007504
AU1664   AU        0.403005    0.502492    0.375241     0.007504
PD1665   PD        0.403361    0.536851    0.343095     0.005394
AU1666   AU        0.436697    0.500960    0.345013     0.007504
AU1667   AU        0.436930    0.535766    0.376134     0.007504
PD1668   PD        0.469490    0.501884    0.377143     0.005394
AU1669   AU        0.471191    0.535971    0.344787     0.007504
PD1670   PD        0.501509    0.499395    0.344435     0.005394
PD1671   PD        0.504197    0.534180    0.378543     0.005394
AU1672   AU        0.536782    0.499126    0.375405     0.007504
AU1673   AU        0.533388    0.535733    0.343849     0.007504
AU1674   AU        0.568804    0.502068    0.344208     0.007504
AU1675   AU        0.570475    0.533880    0.375813     0.007504
AU1676   AU        0.602358    0.499803    0.377341     0.007504
AU1677   AU        0.603958    0.534419    0.346115     0.007504
AU1678   AU        0.634775    0.500007    0.347118     0.007504
AU1679   AU        0.634041    0.535299    0.378664     0.007504
AU1680   AU        0.666927    0.498636    0.376623     0.007504
AU1681   AU        0.666299    0.536692    0.347443     0.007504
PD1682   PD        0.701288    0.501206    0.347338     0.005394
AU1683   AU        0.699977    0.535918    0.377290     0.007504
AU1684   AU        0.732965    0.500456    0.377252     0.007504
PD1685   PD        0.734322    0.536559    0.348096     0.005394
AU1686   AU        0.767019    0.500447    0.348586     0.007504
AU1687   AU        0.767031    0.534823    0.379230     0.007504
AU1688   AU        0.800712    0.501219    0.377350     0.007504
PD1689   PD        0.800764    0.535780    0.345914     0.005394
PD1690   PD        0.070485    0.570784    0.375384     0.005394
PD1691   PD        0.074220    0.606966    0.345287     0.005394
PD1692   PD        0.102838    0.570549    0.345063     0.005394
AU1693   AU        0.105478    0.606812    0.377038     0.007504
AU1694   AU        0.137357    0.573521    0.376223     0.007504
PD1695   PD        0.137235    0.605481    0.343845     0.005394
AU1696   AU        0.170064    0.570424    0.345109     0.007504
AU1697   AU        0.171933    0.605907    0.374060     0.007504
PD1698   PD        0.203672    0.570687    0.375990     0.005394
AU1699   AU        0.201440    0.608831    0.342929     0.007504
PD1700   PD        0.235767    0.573634    0.342836     0.005394
AU1701   AU        0.234634    0.606793    0.375234     0.007504
PD1702   PD        0.268995    0.571837    0.375730     0.005394
AU1703   AU        0.268577    0.608907    0.344313     0.007504
PD1704   PD        0.299645    0.569993    0.345879     0.005394
AU1705   AU        0.302820    0.607143    0.377491     0.007504
AU1706   AU        0.335121    0.569439    0.374641     0.007504
PD1707   PD        0.333695    0.605165    0.342533     0.005394
AU1708   AU        0.369151    0.570476    0.343786     0.007504
AU1709   AU        0.369235    0.605120    0.376613     0.007504
AU1710   AU        0.402496    0.572284    0.375808     0.007504
AU1711   AU        0.401748    0.608075    0.345581     0.007504
PD1712   PD        0.438060    0.572995    0.344327     0.005394
AU1713   AU        0.437279    0.605615    0.376987     0.007504
PD1714   PD        0.470504    0.569684    0.378027     0.005394
AU1715   AU        0.470490    0.608448    0.344351     0.007504
AU1716   AU        0.502694    0.572616    0.344569     0.007504
AU1717   AU        0.502650    0.607765    0.379053     0.007504
PD1718   PD        0.534359    0.566339    0.376920     0.005394
PD1719   PD        0.536215    0.602905    0.349065     0.005394
AU1720   AU        0.569981    0.571634    0.345133     0.007504
PD1721   PD        0.570582    0.607090    0.376691     0.005394
AU1722   AU        0.603455    0.569324    0.379226     0.007504
PD1723   PD        0.600531    0.608101    0.346565     0.005394
PD1724   PD        0.634872    0.571910    0.345595     0.005394
AU1725   AU        0.634582    0.606306    0.377872     0.007504
AU1726   AU        0.668151    0.574111    0.378240     0.007504
PD1727   PD        0.669986    0.611287    0.344565     0.005394
AU1728   AU        0.700328    0.572091    0.346544     0.007504
AU1729   AU        0.702802    0.608057    0.378227     0.007504
AU1730   AU        0.733912    0.569115    0.379108     0.007504
AU1731   AU        0.733115    0.606060    0.347635     0.007504
AU1732   AU        0.767292    0.568788    0.345427     0.007504
AU1733   AU        0.766521    0.604913    0.376661     0.007504
PD1734   PD        0.797825    0.570768    0.377287     0.005394
PD1735   PD        0.799802    0.601691    0.346745     0.005394
PD1736   PD        0.101617    0.638065    0.343450     0.005394
PD1737   PD        0.105492    0.672891    0.374639     0.005394
PD1738   PD        0.137394    0.640387    0.371828     0.005394
PD1739   PD        0.134817    0.675003    0.341761     0.005394
AU1740   AU        0.170876    0.641818    0.342875     0.007504
AU1741   AU        0.168239    0.677886    0.374220     0.007504
PD1742   PD        0.200251    0.643778    0.375662     0.005394
PD1743   PD        0.203659    0.677021    0.344429     0.005394
PD1744   PD        0.236374    0.642937    0.345519     0.005394
PD1745   PD        0.238478    0.677847    0.374710     0.005394
AU1746   AU        0.270479    0.641408    0.375075     0.007504
AU1747   AU        0.270436    0.679290    0.344003     0.007504
AU1748   AU        0.303521    0.639947    0.343813     0.007504
PD1749   PD        0.303939    0.677207    0.374459     0.005394
PD1750   PD        0.337553    0.640045    0.376236     0.005394
PD1751   PD        0.335577    0.678699    0.343580     0.005394
PD1752   PD        0.368151    0.642998    0.344716     0.005394
PD1753   PD        0.368471    0.676218    0.377602     0.005394
PD1754   PD        0.408465    0.642709    0.378833     0.005394
AU1755   AU        0.402608    0.678335    0.344306     0.007504
AU1756   AU        0.435913    0.640469    0.344363     0.007504
PD1757   PD        0.436835    0.674818    0.376507     0.005394
AU1758   AU        0.469225    0.640948    0.378656     0.007504
PD1759   PD        0.470031    0.678153    0.345001     0.005394
PD1760   PD        0.505309    0.641197    0.345473     0.005394
AU1761   AU        0.503326    0.676944    0.377782     0.007504
PD1762   PD        0.535720    0.642705    0.379016     0.005394
PD1763   PD        0.535178    0.680121    0.345205     0.005394
AU1764   AU        0.567747    0.642407    0.349206     0.007504
PD1765   PD        0.569933    0.677012    0.378661     0.005394
PD1766   PD        0.600618    0.641801    0.378108     0.005394
PD1767   PD        0.601594    0.674732    0.344836     0.005394
PD1768   PD        0.638029    0.642288    0.345800     0.005394
PD1769   PD        0.636394    0.675767    0.377003     0.005394
PD1770   PD        0.670230    0.641166    0.380605     0.005394
PD1771   PD        0.669526    0.678430    0.346302     0.005394
PD1772   PD        0.701858    0.641703    0.344769     0.005394
PD1773   PD        0.702486    0.676319    0.376523     0.005394
PD1774   PD        0.734785    0.643497    0.379369     0.005394
AU1775   AU        0.734080    0.676018    0.346788     0.007504
PD1776   PD        0.768301    0.640464    0.346920     0.005394
PD1777   PD        0.771427    0.677315    0.372830     0.005394
PD1778   PD        0.141136    0.715132    0.376354     0.005394
PD1779   PD        0.173057    0.712837    0.344126     0.005394
PD1780   PD        0.169514    0.752736    0.375803     0.005394
PD1781   PD        0.204362    0.714170    0.374925     0.005394
PD1782   PD        0.201757    0.749071    0.347024     0.005394
PD1783   PD        0.233920    0.713471    0.341039     0.005394
PD1784   PD        0.236172    0.746189    0.375967     0.005394
AU1785   AU        0.268007    0.713571    0.373592     0.007504
AU1786   AU        0.270028    0.748461    0.342878     0.007504
PD1787   PD        0.303872    0.712494    0.341019     0.005394
AU1788   AU        0.301973    0.748319    0.373657     0.007504
PD1789   PD        0.335356    0.712562    0.370702     0.005394
AU1790   AU        0.336364    0.749339    0.341873     0.007504
PD1791   PD        0.369401    0.712832    0.344114     0.005394
AU1792   AU        0.368944    0.748443    0.374797     0.007504
PD1793   PD        0.404016    0.709986    0.376960     0.005394
PD1794   PD        0.401650    0.747825    0.343047     0.005394
PD1795   PD        0.436852    0.712439    0.346279     0.005394
PD1796   PD        0.437366    0.749127    0.376554     0.005394
AU1797   AU        0.470886    0.714087    0.377075     0.007504
PD1798   PD        0.466534    0.746481    0.344802     0.005394
AU1799   AU        0.503977    0.715158    0.345945     0.007504
PD1800   PD        0.500927    0.747079    0.376371     0.005394
AU1801   AU        0.535320    0.712481    0.378204     0.007504
PD1802   PD        0.535188    0.749330    0.345903     0.005394
PD1803   PD        0.568276    0.709769    0.346290     0.005394
PD1804   PD        0.572397    0.750308    0.376322     0.005394
PD1805   PD        0.601590    0.712596    0.377992     0.005394
PD1806   PD        0.603288    0.745319    0.346287     0.005394
PD1807   PD        0.638100    0.709788    0.344880     0.005394
PD1808   PD        0.634869    0.746995    0.380844     0.005394
PD1809   PD        0.666533    0.711708    0.376750     0.005394
PD1810   PD        0.668101    0.746640    0.345087     0.005394
PD1811   PD        0.701924    0.713159    0.342899     0.005394
PD1812   PD        0.703384    0.788377    0.410876     0.005394
PD1813   PD        0.731031    0.711961    0.376239     0.005394
PD1814   PD        0.205316    0.781492    0.376726     0.005394
AU1815   AU        0.238469    0.782764    0.343175     0.007504
AU1816   AU        0.268750    0.781660    0.375949     0.007504
PD1817   PD        0.270245    0.820959    0.343753     0.005394
AU1818   AU        0.302503    0.783577    0.342728     0.007504
PD1819   PD        0.303386    0.815650    0.375612     0.005394
AU1820   AU        0.334489    0.782453    0.376163     0.007504
PD1821   PD        0.336578    0.822602    0.343848     0.005394
PD1822   PD        0.369924    0.784582    0.344131     0.005394
PD1823   PD        0.367529    0.819264    0.376115     0.005394
PD1824   PD        0.404214    0.781067    0.377826     0.005394
PD1825   PD        0.403240    0.820022    0.342727     0.005394
PD1826   PD        0.436198    0.786390    0.343077     0.005394
PD1827   PD        0.440116    0.822080    0.374081     0.005394
PD1828   PD        0.468865    0.782372    0.374256     0.005394
PD1829   PD        0.466961    0.817436    0.345240     0.005394
AU1830   AU        0.501798    0.783325    0.346378     0.007504
AU1831   AU        0.503868    0.816199    0.376839     0.007504
PD1832   PD        0.536723    0.781539    0.376289     0.005394
PD1833   PD        0.538252    0.818970    0.347263     0.005394
PD1834   PD        0.569697    0.784587    0.344992     0.005394
PD1835   PD        0.564334    0.861135    0.412075     0.005394
PD1836   PD        0.605509    0.785141    0.377511     0.005394
PD1837   PD        0.662055    0.824288    0.285745     0.005394
PD1838   PD        0.636675    0.781419    0.345628     0.005394
PD1839   PD        0.669982    0.785992    0.378425     0.005394
PD1840   PD        0.334450    0.858244    0.442100     0.005394
PD1841   PD        0.433448    0.857515    0.342619     0.005394
PD1842   PD        0.469036    0.848449    0.377633     0.005394
PD1843   PD        0.270210    0.039778    0.406624     0.005394
PD1844   PD        0.301555    0.040842    0.437294     0.005394
PD1845   PD        0.337797    0.040702    0.405338     0.005394
PD1846   PD        0.371482    0.003213    0.410635     0.005394
PD1847   PD        0.369751    0.037805    0.438922     0.005394
PD1848   PD        0.402818    0.002878    0.438482     0.005394
AU1849   AU        0.403281    0.039218    0.407619     0.007504
PD1850   PD        0.438433    0.003441    0.408745     0.005394
AU1851   AU        0.436321    0.039084    0.438471     0.007504
AU1852   AU        0.468714    0.004827    0.438516     0.007504
AU1853   AU        0.469942    0.038568    0.408677     0.007504
PD1854   PD        0.502202    0.002826    0.407474     0.005394
AU1855   AU        0.502082    0.036778    0.437020     0.007504
AU1856   AU        0.537979    0.038407    0.406789     0.007504
PD1857   PD        0.567787    0.037903    0.438801     0.005394
PD1858   PD        0.601459    0.039249    0.406563     0.005394
AU1859   AU        0.167025    0.109801    0.437649     0.007504
PD1860   PD        0.202079    0.076508    0.441284     0.005394
PD1861   PD        0.201492    0.109979    0.411439     0.005394
PD1862   PD        0.234165    0.069389    0.410329     0.005394
AU1863   AU        0.236927    0.109860    0.440298     0.007504
AU1864   AU        0.267846    0.074488    0.438450     0.007504
AU1865   AU        0.270789    0.108990    0.409585     0.007504
AU1866   AU        0.304002    0.075157    0.407670     0.007504
PD1867   PD        0.301714    0.109758    0.439440     0.005394
PD1868   PD        0.338228    0.073137    0.437047     0.005394
PD1869   PD        0.336690    0.109306    0.410232     0.005394
AU1870   AU        0.370782    0.072425    0.407523     0.007504
PD1871   PD        0.368133    0.109926    0.439578     0.005394
PD1872   PD        0.401819    0.076348    0.439993     0.005394
PD1873   PD        0.401595    0.107879    0.408872     0.005394
AU1874   AU        0.436254    0.074458    0.410679     0.007504
AU1875   AU        0.435374    0.108572    0.437863     0.007504
AU1876   AU        0.471818    0.071981    0.437777     0.007504
PD1877   PD        0.470663    0.107685    0.406557     0.005394
PD1878   PD        0.502117    0.072435    0.405482     0.005394
PD1879   PD        0.502252    0.107955    0.438758     0.005394
AU1880   AU        0.533685    0.072206    0.437815     0.007504
AU1881   AU        0.536425    0.107491    0.407656     0.007504
PD1882   PD        0.568656    0.072168    0.408199     0.005394
PD1883   PD        0.567850    0.109609    0.439313     0.005394
PD1884   PD        0.598828    0.076254    0.438551     0.005394
AU1885   AU        0.601113    0.110046    0.407475     0.007504
PD1886   PD        0.633000    0.073716    0.409845     0.005394
AU1887   AU        0.635480    0.111218    0.439033     0.007504
PD1888   PD        0.666575    0.075056    0.439139     0.005394
PD1889   PD        0.669457    0.110288    0.409796     0.005394
PD1890   PD        0.700122    0.106752    0.434443     0.005394
PD1891   PD        0.103196    0.179656    0.436259     0.005394
PD1892   PD        0.135731    0.146567    0.437166     0.005394
AU1893   AU        0.138976    0.180589    0.406122     0.007504
AU1894   AU        0.172356    0.147176    0.410646     0.007504
PD1895   PD        0.170048    0.178151    0.442842     0.005394
AU1896   AU        0.203276    0.143386    0.439747     0.007504
PD1897   PD        0.202099    0.182507    0.409584     0.005394
PD1898   PD        0.236309    0.146900    0.410090     0.005394
PD1899   PD        0.237620    0.178156    0.441499     0.005394
PD1900   PD        0.270861    0.142822    0.439995     0.005394
PD1901   PD        0.270455    0.176814    0.410338     0.005394
AU1902   AU        0.304515    0.143667    0.408345     0.007504
AU1903   AU        0.302103    0.179727    0.439735     0.007504
AU1904   AU        0.334692    0.144939    0.439403     0.007504
AU1905   AU        0.336207    0.178488    0.408420     0.007504
AU1906   AU        0.369945    0.144410    0.406610     0.007504
PD1907   PD        0.366692    0.179204    0.438822     0.005394
AU1908   AU        0.401067    0.144718    0.438728     0.007504
PD1909   PD        0.401094    0.177364    0.408813     0.005394
PD1910   PD        0.436627    0.145942    0.406074     0.005394
PD1911   PD        0.436425    0.179408    0.436753     0.005394
AU1912   AU        0.468622    0.144314    0.439174     0.007504
AU1913   AU        0.469640    0.179432    0.407057     0.007504
PD1914   PD        0.504283    0.141278    0.407797     0.005394
AU1915   AU        0.501653    0.178107    0.438897     0.007504
AU1916   AU        0.535422    0.143444    0.440123     0.007504
AU1917   AU        0.534605    0.180468    0.407374     0.007504
AU1918   AU        0.567253    0.143627    0.408373     0.007504
PD1919   PD        0.567004    0.176717    0.440332     0.005394
PD1920   PD        0.601108    0.145368    0.437675     0.005394
AU1921   AU        0.601760    0.178396    0.408790     0.007504
PD1922   PD        0.635640    0.143823    0.406851     0.005394
PD1923   PD        0.633877    0.180872    0.438928     0.005394
AU1924   AU        0.667369    0.147063    0.440983     0.007504
PD1925   PD        0.668977    0.182777    0.407597     0.005394
AU1926   AU        0.700214    0.146132    0.411120     0.007504
PD1927   PD        0.700015    0.179972    0.441287     0.005394
PD1928   PD        0.733379    0.146433    0.440081     0.005394
PD1929   PD        0.732176    0.178599    0.408747     0.005394
PD1930   PD        0.768259    0.177957    0.437281     0.005394
PD1931   PD        0.068626    0.253371    0.406826     0.005394
PD1932   PD        0.101443    0.217950    0.408232     0.005394
PD1933   PD        0.104772    0.248176    0.439637     0.005394
PD1934   PD        0.138661    0.214039    0.441521     0.005394
PD1935   PD        0.138101    0.248472    0.408668     0.005394
PD1936   PD        0.170004    0.213676    0.410178     0.005394
PD1937   PD        0.171275    0.249727    0.441044     0.005394
PD1938   PD        0.203814    0.212106    0.442087     0.005394
PD1939   PD        0.202583    0.249955    0.408693     0.005394
PD1940   PD        0.235513    0.213839    0.408765     0.005394
AU1941   AU        0.236470    0.250565    0.438512     0.007504
AU1942   AU        0.267969    0.215630    0.439311     0.007504
PD1943   PD        0.269069    0.249264    0.409537     0.005394
AU1944   AU        0.301614    0.216748    0.408333     0.007504
AU1945   AU        0.300888    0.249590    0.439788     0.007504
AU1946   AU        0.336277    0.214376    0.438429     0.007504
PD1947   PD        0.335364    0.250134    0.406958     0.005394
AU1948   AU        0.368484    0.215896    0.407523     0.007504
AU1949   AU        0.368068    0.249656    0.440074     0.007504
AU1950   AU        0.402196    0.215203    0.440715     0.007504
AU1951   AU        0.401890    0.249371    0.408372     0.007504
PD1952   PD        0.435649    0.217833    0.406502     0.005394
PD1953   PD        0.437190    0.247472    0.440956     0.005394
AU1954   AU        0.468623    0.212864    0.438826     0.007504
AU1955   AU        0.469361    0.251365    0.408885     0.007504
AU1956   AU        0.501653    0.217127    0.408062     0.007504
PD1957   PD        0.504435    0.249593    0.436848     0.005394
AU1958   AU        0.534020    0.214340    0.439399     0.007504
AU1959   AU        0.535534    0.252031    0.407562     0.007504
AU1960   AU        0.568777    0.213743    0.408595     0.007504
AU1961   AU        0.568731    0.249858    0.438357     0.007504
AU1962   AU        0.602191    0.216981    0.440083     0.007504
AU1963   AU        0.602340    0.248742    0.408338     0.007504
AU1964   AU        0.635075    0.213691    0.408140     0.007504
AU1965   AU        0.636745    0.249607    0.440944     0.007504
AU1966   AU        0.667270    0.213402    0.440617     0.007504
PD1967   PD        0.669447    0.248517    0.411128     0.005394
AU1968   AU        0.701764    0.216672    0.409989     0.007504
AU1969   AU        0.701044    0.251050    0.440490     0.007504
PD1970   PD        0.733882    0.217366    0.439316     0.005394
AU1971   AU        0.734507    0.253888    0.407918     0.007504
PD1972   PD        0.763587    0.214879    0.410728     0.005394
AU1973   AU        0.765964    0.252874    0.439366     0.007504
PD1974   PD        0.798399    0.250100    0.407608     0.005394
AU1975   AU        0.071567    0.284934    0.440221     0.007504
PD1976   PD        0.070576    0.320125    0.405093     0.005394
PD1977   PD        0.104651    0.286368    0.408961     0.005394
PD1978   PD        0.103407    0.323732    0.438399     0.005394
AU1979   AU        0.136645    0.286520    0.440203     0.007504
AU1980   AU        0.137860    0.320433    0.407695     0.007504
PD1981   PD        0.168640    0.283706    0.409694     0.005394
AU1982   AU        0.168868    0.320408    0.440849     0.007504
PD1983   PD        0.202711    0.285145    0.440068     0.005394
PD1984   PD        0.199382    0.321511    0.407930     0.005394
AU1985   AU        0.236279    0.286351    0.406253     0.007504
AU1986   AU        0.234876    0.320480    0.439562     0.007504
AU1987   AU        0.267903    0.285901    0.439115     0.007504
AU1988   AU        0.268217    0.320207    0.407004     0.007504
AU1989   AU        0.301984    0.284838    0.408250     0.007504
AU1990   AU        0.301620    0.319251    0.439194     0.007504
AU1991   AU        0.334641    0.284039    0.438904     0.007504
PD1992   PD        0.336816    0.319910    0.405714     0.005394
AU1993   AU        0.369075    0.286063    0.408750     0.007504
AU1994   AU        0.367312    0.321091    0.440387     0.007504
AU1995   AU        0.401958    0.284300    0.440778     0.007504
AU1996   AU        0.400882    0.320203    0.409557     0.007504
AU1997   AU        0.434693    0.285481    0.409830     0.007504
AU1998   AU        0.435569    0.322401    0.437651     0.007504
AU1999   AU        0.469566    0.288334    0.438462     0.007504
AU2000   AU        0.468376    0.320874    0.407493     0.007504
AU2001   AU        0.501881    0.287145    0.409056     0.007504
AU2002   AU        0.502218    0.323343    0.438782     0.007504
AU2003   AU        0.536250    0.286578    0.442153     0.007504
AU2004   AU        0.535532    0.323404    0.409166     0.007504
PD2005   PD        0.570399    0.285898    0.408630     0.005394
AU2006   AU        0.568333    0.322070    0.438727     0.007504
AU2007   AU        0.604512    0.284534    0.439332     0.007504
AU2008   AU        0.602512    0.321922    0.409253     0.007504
PD2009   PD        0.636287    0.286407    0.409850     0.005394
AU2010   AU        0.635729    0.321927    0.440463     0.007504
AU2011   AU        0.668113    0.287812    0.438810     0.007504
PD2012   PD        0.666971    0.321516    0.410121     0.005394
PD2013   PD        0.699882    0.284683    0.407144     0.005394
AU2014   AU        0.702293    0.323117    0.440548     0.007504
AU2015   AU        0.735493    0.287337    0.439034     0.007504
PD2016   PD        0.734037    0.322933    0.408705     0.005394
AU2017   AU        0.765837    0.288078    0.408516     0.007504
AU2018   AU        0.767324    0.323337    0.440365     0.007504
AU2019   AU        0.800766    0.286036    0.438009     0.007504
AU2020   AU        0.799752    0.325429    0.410221     0.007504
PD2021   PD        0.000667    0.357634    0.438449     0.005394
PD2022   PD        0.039117    0.391360    0.439388     0.005394
AU2023   AU        0.070781    0.359161    0.437936     0.007504
PD2024   PD        0.069044    0.393465    0.406809     0.005394
AU2025   AU        0.103148    0.357126    0.407539     0.007504
PD2026   PD        0.104376    0.392493    0.438725     0.005394
AU2027   AU        0.135580    0.356621    0.440979     0.007504
PD2028   PD        0.137383    0.392945    0.409592     0.005394
PD2029   PD        0.167720    0.357077    0.408557     0.005394
PD2030   PD        0.167475    0.391307    0.440553     0.005394
PD2031   PD        0.203340    0.353961    0.437760     0.005394
PD2032   PD        0.200414    0.390092    0.408477     0.005394
AU2033   AU        0.234077    0.355004    0.408205     0.007504
PD2034   PD        0.235618    0.390855    0.439175     0.005394
PD2035   PD        0.267958    0.355466    0.439056     0.005394
AU2036   AU        0.267576    0.392924    0.408114     0.007504
PD2037   PD        0.302598    0.356120    0.407466     0.005394
AU2038   AU        0.302052    0.392861    0.439428     0.007504
AU2039   AU        0.334774    0.354488    0.439905     0.007504
AU2040   AU        0.336940    0.392127    0.407292     0.007504
AU2041   AU        0.367701    0.356325    0.410099     0.007504
AU2042   AU        0.367690    0.394201    0.438604     0.007504
AU2043   AU        0.401708    0.355908    0.439944     0.007504
AU2044   AU        0.402641    0.391731    0.411057     0.007504
AU2045   AU        0.435090    0.360663    0.408444     0.007504
AU2046   AU        0.436257    0.392894    0.441004     0.007504
AU2047   AU        0.469131    0.358696    0.438219     0.007504
AU2048   AU        0.468390    0.393485    0.408089     0.007504
AU2049   AU        0.501150    0.358292    0.408234     0.007504
PD2050   PD        0.503019    0.394520    0.438617     0.005394
AU2051   AU        0.535292    0.359023    0.438588     0.007504
AU2052   AU        0.536297    0.394935    0.409337     0.007504
AU2053   AU        0.570886    0.359558    0.407265     0.007504
AU2054   AU        0.570180    0.394831    0.439905     0.007504
AU2055   AU        0.602722    0.357537    0.438758     0.007504
AU2056   AU        0.602978    0.395848    0.408965     0.007504
AU2057   AU        0.636567    0.357994    0.409171     0.007504
AU2058   AU        0.634115    0.392438    0.440869     0.007504
AU2059   AU        0.668286    0.359672    0.440459     0.007504
AU2060   AU        0.669230    0.394810    0.408611     0.007504
AU2061   AU        0.699353    0.357998    0.407302     0.007504
PD2062   PD        0.701545    0.394148    0.438948     0.005394
AU2063   AU        0.734110    0.356870    0.439722     0.007504
AU2064   AU        0.734987    0.392277    0.408322     0.007504
AU2065   AU        0.764917    0.357469    0.408776     0.007504
AU2066   AU        0.767149    0.392875    0.439296     0.007504
PD2067   PD        0.797054    0.359793    0.439712     0.005394
PD2068   PD        0.799192    0.393856    0.409297     0.005394
PD2069   PD        0.831940    0.360455    0.411343     0.005394
PD2070   PD        0.865335    0.389490    0.476286     0.005394
AU2071   AU        0.036450    0.428902    0.408058     0.007504
AU2072   AU        0.038045    0.462881    0.439852     0.007504
AU2073   AU        0.070048    0.425684    0.439966     0.007504
AU2074   AU        0.070003    0.462730    0.409126     0.007504
PD2075   PD        0.102699    0.430100    0.410224     0.005394
PD2076   PD        0.103139    0.463812    0.437840     0.005394
AU2077   AU        0.136870    0.427797    0.440056     0.007504
AU2078   AU        0.139667    0.463298    0.408694     0.007504
PD2079   PD        0.169939    0.427861    0.410480     0.005394
AU2080   AU        0.168871    0.463116    0.439450     0.007504
PD2081   PD        0.202940    0.430307    0.437993     0.005394
PD2082   PD        0.199980    0.463255    0.407235     0.005394
PD2083   PD        0.236384    0.427835    0.405431     0.005394
AU2084   AU        0.236268    0.462367    0.438175     0.007504
PD2085   PD        0.268594    0.426681    0.439925     0.005394
AU2086   AU        0.269870    0.463600    0.406953     0.007504
AU2087   AU        0.303830    0.429351    0.407524     0.007504
AU2088   AU        0.301753    0.463946    0.438080     0.007504
AU2089   AU        0.335384    0.427721    0.439305     0.007504
AU2090   AU        0.334931    0.467057    0.408452     0.007504
PD2091   PD        0.370440    0.430307    0.405485     0.005394
AU2092   AU        0.367332    0.464950    0.440407     0.007504
AU2093   AU        0.403636    0.428103    0.440799     0.007504
PD2094   PD        0.403525    0.466764    0.407455     0.005394
AU2095   AU        0.436505    0.428868    0.407711     0.007504
AU2096   AU        0.437743    0.461514    0.438999     0.007504
AU2097   AU        0.469038    0.428144    0.441647     0.007504
AU2098   AU        0.470580    0.464848    0.408774     0.007504
AU2099   AU        0.501078    0.429058    0.406807     0.007504
AU2100   AU        0.502535    0.461673    0.439595     0.007504
PD2101   PD        0.536585    0.427466    0.438869     0.005394
AU2102   AU        0.536139    0.465531    0.409873     0.007504
PD2103   PD        0.569067    0.430230    0.408855     0.005394
AU2104   AU        0.571434    0.464046    0.439827     0.007504
AU2105   AU        0.602325    0.429988    0.438652     0.007504
AU2106   AU        0.601378    0.465278    0.408441     0.007504
AU2107   AU        0.636707    0.428751    0.406939     0.007504
PD2108   PD        0.635155    0.462883    0.440977     0.005394
PD2109   PD        0.670018    0.427361    0.438996     0.005394
AU2110   AU        0.667702    0.464175    0.410583     0.007504
PD2111   PD        0.703212    0.428166    0.410090     0.005394
PD2112   PD        0.699297    0.464575    0.439523     0.005394
AU2113   AU        0.735607    0.428898    0.441041     0.007504
AU2114   AU        0.733884    0.464992    0.409597     0.007504
PD2115   PD        0.768050    0.430766    0.408810     0.005394
AU2116   AU        0.767239    0.464504    0.440324     0.007504
AU2117   AU        0.799533    0.427850    0.439264     0.007504
AU2118   AU        0.800144    0.464732    0.409219     0.007504
PD2119   PD        0.835282    0.428864    0.410820     0.005394
PD2120   PD        0.830479    0.461568    0.439211     0.005394
PD2121   PD        0.037690    0.495554    0.408463     0.005394
PD2122   PD        0.068676    0.497686    0.439010     0.005394
PD2123   PD        0.069336    0.535679    0.405570     0.005394
PD2124   PD        0.101432    0.498441    0.407286     0.005394
PD2125   PD        0.104228    0.537464    0.439590     0.005394
AU2126   AU        0.135546    0.501308    0.438662     0.007504
PD2127   PD        0.139238    0.535658    0.406688     0.005394
PD2128   PD        0.169285    0.501575    0.406510     0.005394
AU2129   AU        0.172229    0.534585    0.439176     0.007504
AU2130   AU        0.202497    0.497195    0.438816     0.007504
AU2131   AU        0.204462    0.532518    0.407311     0.007504
AU2132   AU        0.237928    0.498296    0.408297     0.007504
AU2133   AU        0.235711    0.534196    0.438495     0.007504
AU2134   AU        0.267614    0.498652    0.440297     0.007504
AU2135   AU        0.266889    0.534211    0.407982     0.007504
AU2136   AU        0.302130    0.498396    0.408593     0.007504
AU2137   AU        0.300534    0.533234    0.439731     0.007504
AU2138   AU        0.337099    0.499381    0.439019     0.007504
AU2139   AU        0.335949    0.533336    0.407490     0.007504
AU2140   AU        0.371742    0.501327    0.409464     0.007504
AU2141   AU        0.370382    0.537659    0.440024     0.007504
PD2142   PD        0.402500    0.500989    0.439779     0.005394
AU2143   AU        0.401768    0.536480    0.407492     0.007504
AU2144   AU        0.436168    0.500329    0.409915     0.007504
AU2145   AU        0.434796    0.536240    0.439770     0.007504
AU2146   AU        0.469273    0.498373    0.441044     0.007504
AU2147   AU        0.469129    0.534229    0.408638     0.007504
PD2148   PD        0.501910    0.500399    0.406983     0.005394
PD2149   PD        0.500360    0.535023    0.440108     0.005394
AU2150   AU        0.536025    0.499409    0.441170     0.007504
PD2151   PD        0.534614    0.533877    0.408228     0.005394
AU2152   AU        0.569547    0.499117    0.407257     0.007504
AU2153   AU        0.569044    0.535111    0.440510     0.007504
PD2154   PD        0.602831    0.499342    0.440936     0.005394
AU2155   AU        0.602663    0.533491    0.408022     0.007504
AU2156   AU        0.635511    0.498150    0.407549     0.007504
PD2157   PD        0.635163    0.535468    0.438282     0.005394
PD2158   PD        0.667795    0.499218    0.439784     0.005394
AU2159   AU        0.668401    0.535916    0.408858     0.007504
PD2160   PD        0.700616    0.500250    0.410246     0.005394
AU2161   AU        0.698811    0.535057    0.440642     0.007504
AU2162   AU        0.730978    0.497975    0.439926     0.007504
AU2163   AU        0.732609    0.535215    0.409697     0.007504
PD2164   PD        0.764878    0.501453    0.408555     0.005394
PD2165   PD        0.765400    0.535140    0.441156     0.005394
AU2166   AU        0.799024    0.498559    0.441580     0.007504
PD2167   PD        0.801384    0.534448    0.407980     0.005394
PD2168   PD        0.836112    0.501148    0.412852     0.005394
PD2169   PD        0.071445    0.569859    0.439025     0.005394
PD2170   PD        0.069065    0.605674    0.406259     0.005394
PD2171   PD        0.102411    0.570716    0.404967     0.005394
PD2172   PD        0.105455    0.602126    0.436531     0.005394
AU2173   AU        0.139316    0.567954    0.439156     0.007504
PD2174   PD        0.138461    0.608320    0.405904     0.005394
AU2175   AU        0.171300    0.571379    0.406677     0.007504
PD2176   PD        0.167818    0.607489    0.434257     0.005394
PD2177   PD        0.202319    0.572705    0.439447     0.005394
PD2178   PD        0.204724    0.604847    0.407186     0.005394
PD2179   PD        0.232769    0.569715    0.407579     0.005394
AU2180   AU        0.234833    0.608747    0.436877     0.007504
PD2181   PD        0.268604    0.572785    0.437101     0.005394
AU2182   AU        0.266737    0.604721    0.406148     0.007504
PD2183   PD        0.300443    0.572231    0.406436     0.005394
PD2184   PD        0.301615    0.603919    0.437420     0.005394
AU2185   AU        0.336564    0.570344    0.441173     0.007504
AU2186   AU        0.334287    0.604473    0.407716     0.007504
AU2187   AU        0.369170    0.570743    0.408657     0.007504
AU2188   AU        0.368785    0.605777    0.441279     0.007504
AU2189   AU        0.402296    0.571866    0.440156     0.007504
PD2190   PD        0.402296    0.609277    0.410289     0.005394
AU2191   AU        0.434924    0.570370    0.406639     0.007504
PD2192   PD        0.437930    0.608992    0.439367     0.005394
AU2193   AU        0.468194    0.572150    0.440272     0.007504
AU2194   AU        0.470357    0.605810    0.409646     0.007504
AU2195   AU        0.501870    0.570551    0.408820     0.007504
AU2196   AU        0.504741    0.607701    0.440130     0.007504
AU2197   AU        0.535566    0.572111    0.440365     0.007504
PD2198   PD        0.538042    0.606172    0.409805     0.005394
AU2199   AU        0.569989    0.568291    0.408490     0.007504
AU2200   AU        0.568009    0.605729    0.440483     0.007504
AU2201   AU        0.601093    0.571681    0.441583     0.007504
AU2202   AU        0.602252    0.606901    0.409823     0.007504
PD2203   PD        0.636328    0.572703    0.410415     0.005394
AU2204   AU        0.635238    0.604959    0.441054     0.007504
AU2205   AU        0.668932    0.572814    0.441005     0.007504
AU2206   AU        0.668955    0.606886    0.409208     0.007504
PD2207   PD        0.702399    0.571765    0.408010     0.005394
AU2208   AU        0.701857    0.605123    0.440266     0.007504
PD2209   PD        0.735177    0.571064    0.437807     0.005394
PD2210   PD        0.735543    0.605166    0.410014     0.005394
PD2211   PD        0.767291    0.570889    0.409160     0.005394
PD2212   PD        0.768494    0.607719    0.438416     0.005394
PD2213   PD        0.796964    0.569309    0.440623     0.005394
PD2214   PD        0.801422    0.607547    0.407275     0.005394
AU2215   AU        0.104059    0.640861    0.404152     0.007504
PD2216   PD        0.099745    0.675750    0.438362     0.005394
AU2217   AU        0.135810    0.640165    0.436550     0.007504
PD2218   PD        0.136358    0.676022    0.407056     0.005394
PD2219   PD        0.170521    0.642780    0.405198     0.005394
PD2220   PD        0.168421    0.675554    0.437344     0.005394
PD2221   PD        0.199880    0.641996    0.436408     0.005394
PD2222   PD        0.202086    0.677267    0.404216     0.005394
AU2223   AU        0.234019    0.642784    0.405804     0.007504
PD2224   PD        0.238591    0.680381    0.437929     0.005394
PD2225   PD        0.269927    0.643945    0.438508     0.005394
AU2226   AU        0.268240    0.678546    0.405892     0.007504
AU2227   AU        0.301317    0.642690    0.407261     0.007504
PD2228   PD        0.301665    0.676037    0.440598     0.005394
AU2229   AU        0.337434    0.642134    0.436887     0.007504
PD2230   PD        0.336281    0.677614    0.406137     0.005394
PD2231   PD        0.368522    0.639700    0.407876     0.005394
PD2232   PD        0.366968    0.679488    0.439986     0.005394
PD2233   PD        0.402741    0.644231    0.440719     0.005394
PD2234   PD        0.401627    0.677478    0.408860     0.005394
PD2235   PD        0.437865    0.642051    0.410723     0.005394
PD2236   PD        0.437026    0.677674    0.442104     0.005394
AU2237   AU        0.469287    0.644056    0.440117     0.007504
AU2238   AU        0.469923    0.680081    0.410372     0.007504
AU2239   AU        0.501657    0.644126    0.409878     0.007504
PD2240   PD        0.504895    0.677506    0.439122     0.005394
PD2241   PD        0.535977    0.642000    0.440475     0.005394
AU2242   AU        0.536132    0.679346    0.407066     0.007504
PD2243   PD        0.571874    0.643106    0.410931     0.005394
AU2244   AU        0.569499    0.677403    0.440623     0.007504
AU2245   AU        0.603521    0.641707    0.439756     0.007504
PD2246   PD        0.601701    0.678639    0.408628     0.005394
AU2247   AU        0.635827    0.642150    0.410434     0.007504
AU2248   AU        0.638304    0.676474    0.442634     0.007504
AU2249   AU        0.670631    0.641193    0.441853     0.007504
PD2250   PD        0.670744    0.675585    0.411074     0.005394
PD2251   PD        0.704565    0.641112    0.409802     0.005394
PD2252   PD        0.703082    0.675021    0.441729     0.005394
PD2253   PD        0.736838    0.642166    0.439408     0.005394
PD2254   PD        0.735322    0.681814    0.409974     0.005394
AU2255   AU        0.767088    0.642374    0.409676     0.007504
PD2256   PD        0.770507    0.675054    0.439065     0.005394
PD2257   PD        0.103177    0.743369    0.443256     0.005394
PD2258   PD        0.167256    0.713666    0.404678     0.005394
PD2259   PD        0.168098    0.743720    0.435638     0.005394
AU2260   AU        0.203486    0.710593    0.436192     0.007504
PD2261   PD        0.202114    0.747328    0.404987     0.005394
AU2262   AU        0.234841    0.713418    0.405618     0.007504
PD2263   PD        0.237291    0.746629    0.439312     0.005394
PD2264   PD        0.269963    0.712677    0.436187     0.005394
PD2265   PD        0.269258    0.746625    0.408365     0.005394
AU2266   AU        0.303881    0.712422    0.404080     0.007504
PD2267   PD        0.300401    0.746768    0.437236     0.005394
PD2268   PD        0.334797    0.713106    0.441717     0.005394
PD2269   PD        0.333802    0.748602    0.405006     0.005394
PD2270   PD        0.368903    0.713293    0.406551     0.005394
PD2271   PD        0.367871    0.747802    0.439073     0.005394
AU2272   AU        0.403210    0.711553    0.438007     0.007504
PD2273   PD        0.402695    0.745777    0.407033     0.005394
AU2274   AU        0.436102    0.714363    0.407838     0.007504
AU2275   AU        0.437106    0.747639    0.439967     0.007504
AU2276   AU        0.469017    0.711985    0.441494     0.007504
AU2277   AU        0.470093    0.747762    0.407497     0.007504
AU2278   AU        0.503596    0.714125    0.407537     0.007504
PD2279   PD        0.506755    0.746818    0.440085     0.005394
AU2280   AU        0.537753    0.710586    0.439201     0.007504
PD2281   PD        0.537008    0.747849    0.406317     0.005394
PD2282   PD        0.568276    0.713142    0.407261     0.005394
AU2283   AU        0.569685    0.746247    0.441599     0.007504
PD2284   PD        0.602654    0.712736    0.441422     0.005394
AU2285   AU        0.601000    0.746583    0.411409     0.007504
AU2286   AU        0.636447    0.709403    0.411752     0.007504
PD2287   PD        0.634391    0.748665    0.439053     0.005394
PD2288   PD        0.665279    0.708463    0.442505     0.005394
PD2289   PD        0.667554    0.748902    0.409513     0.005394
PD2290   PD        0.698502    0.713339    0.410145     0.005394
PD2291   PD        0.697468    0.747630    0.437975     0.005394
PD2292   PD        0.732732    0.716301    0.442207     0.005394
PD2293   PD        0.167289    0.779936    0.467476     0.005394
PD2294   PD        0.234872    0.780583    0.404941     0.005394
PD2295   PD        0.265816    0.784103    0.434721     0.005394
AU2296   AU        0.268909    0.818088    0.406319     0.007504
AU2297   AU        0.303505    0.782953    0.404777     0.007504
PD2298   PD        0.303746    0.814910    0.436761     0.005394
PD2299   PD        0.334525    0.778725    0.435631     0.005394
AU2300   AU        0.334272    0.820381    0.405333     0.007504
PD2301   PD        0.366428    0.784573    0.406586     0.005394
PD2302   PD        0.366486    0.815842    0.437652     0.005394
PD2303   PD        0.403026    0.781099    0.435456     0.005394
PD2304   PD        0.402156    0.819270    0.405436     0.005394
PD2305   PD        0.434545    0.783140    0.411860     0.005394
PD2306   PD        0.446003    0.823797    0.444563     0.005394
PD2307   PD        0.470465    0.780855    0.439550     0.005394
PD2308   PD        0.470498    0.815875    0.404470     0.005394
PD2309   PD        0.502995    0.782242    0.406875     0.005394
PD2310   PD        0.500170    0.819019    0.438993     0.005394
PD2311   PD        0.536727    0.783467    0.439759     0.005394
PD2312   PD        0.537512    0.814486    0.407999     0.005394
AU2313   AU        0.571540    0.782082    0.409909     0.007504
PD2314   PD        0.571737    0.820982    0.442184     0.005394
PD2315   PD        0.600938    0.782424    0.441677     0.005394
PD2316   PD        0.634746    0.819994    0.433370     0.005394
PD2317   PD        0.632959    0.780167    0.404502     0.005394
PD2318   PD        0.671197    0.785500    0.439695     0.005394
PD2319   PD        0.335880    0.856123    0.373370     0.005394
PD2320   PD        0.405072    0.849957    0.436448     0.005394
PD2321   PD        0.437779    0.850799    0.407490     0.005394
PD2322   PD        0.501885    0.853969    0.486808     0.005394
AU2323   AU        0.502081    0.853027    0.407990     0.007504
PD2324   PD        0.272545    0.035266    0.463633     0.005394
AU2325   AU        0.299010    0.038468    0.498172     0.007504
AU2326   AU        0.333656    0.038363    0.469812     0.007504
PD2327   PD        0.371622    0.036606    0.502146     0.005394
PD2328   PD        0.401969    0.038764    0.469671     0.005394
PD2329   PD        0.435480    0.004204    0.468215     0.005394
PD2330   PD        0.437131    0.038925    0.500306     0.005394
AU2331   AU        0.468115    0.036758    0.470546     0.007504
AU2332   AU        0.501966    0.037097    0.502479     0.007504
PD2333   PD        0.534881    0.039324    0.472109     0.005394
AU2334   AU        0.567786    0.037691    0.499476     0.007504
AU2335   AU        0.605949    0.038333    0.472784     0.007504
PD2336   PD        0.203458    0.112634    0.470411     0.005394
AU2337   AU        0.234573    0.075316    0.470882     0.007504
PD2338   PD        0.239663    0.110172    0.498593     0.005394
PD2339   PD        0.270191    0.075549    0.501155     0.005394
AU2340   AU        0.271280    0.109621    0.469299     0.007504
PD2341   PD        0.302076    0.073636    0.469102     0.005394
AU2342   AU        0.302315    0.111181    0.501634     0.007504
AU2343   AU        0.334907    0.073419    0.500038     0.007504
AU2344   AU        0.335821    0.109593    0.470252     0.007504
PD2345   PD        0.368214    0.072194    0.466463     0.005394
PD2346   PD        0.369682    0.111132    0.500334     0.005394
PD2347   PD        0.404943    0.071713    0.499317     0.005394
AU2348   AU        0.400901    0.110315    0.470847     0.007504
PD2349   PD        0.438008    0.072278    0.468340     0.005394
PD2350   PD        0.432921    0.110091    0.502179     0.005394
AU2351   AU        0.469098    0.073324    0.501653     0.007504
PD2352   PD        0.468006    0.108834    0.471566     0.005394
PD2353   PD        0.502597    0.072796    0.468327     0.005394
PD2354   PD        0.501268    0.107967    0.501694     0.005394
AU2355   AU        0.533861    0.073975    0.502753     0.007504
PD2356   PD        0.535797    0.108481    0.470676     0.005394
PD2357   PD        0.568632    0.073653    0.469878     0.005394
AU2358   AU        0.568978    0.107164    0.500624     0.007504
PD2359   PD        0.601942    0.073098    0.503903     0.005394
PD2360   PD        0.600953    0.108905    0.470790     0.005394
AU2361   AU        0.634789    0.076508    0.470047     0.007504
AU2362   AU        0.633634    0.108683    0.501773     0.007504
PD2363   PD        0.668620    0.107082    0.470027     0.005394
PD2364   PD        0.136681    0.179207    0.470429     0.005394
AU2365   AU        0.170264    0.145093    0.472018     0.007504
AU2366   AU        0.169139    0.178300    0.502228     0.007504
AU2367   AU        0.204458    0.144104    0.500543     0.007504
PD2368   PD        0.203213    0.180252    0.472341     0.005394
PD2369   PD        0.236275    0.145906    0.468710     0.005394
AU2370   AU        0.237111    0.180399    0.503071     0.007504
AU2371   AU        0.269954    0.145527    0.502315     0.007504
AU2372   AU        0.269488    0.179306    0.472139     0.007504
AU2373   AU        0.301894    0.145536    0.470391     0.007504
PD2374   PD        0.304309    0.178968    0.501156     0.005394
PD2375   PD        0.335425    0.144042    0.503192     0.005394
AU2376   AU        0.335512    0.180158    0.470451     0.007504
PD2377   PD        0.366942    0.145671    0.469958     0.005394
AU2378   AU        0.368778    0.179986    0.501807     0.007504
PD2379   PD        0.402135    0.146785    0.501810     0.005394
AU2380   AU        0.401686    0.180132    0.471925     0.007504
PD2381   PD        0.434523    0.145212    0.469619     0.005394
AU2382   AU        0.435220    0.179877    0.501565     0.007504
PD2383   PD        0.467904    0.142921    0.502171     0.005394
AU2384   AU        0.469010    0.178827    0.470289     0.007504
AU2385   AU        0.501850    0.144743    0.470827     0.007504
PD2386   PD        0.500009    0.177294    0.500998     0.005394
AU2387   AU        0.534176    0.143378    0.501200     0.007504
PD2388   PD        0.535174    0.180068    0.470668     0.005394
PD2389   PD        0.568592    0.142484    0.472121     0.005394
PD2390   PD        0.566388    0.178016    0.503480     0.005394
AU2391   AU        0.600351    0.143600    0.501129     0.007504
AU2392   AU        0.600818    0.180747    0.468824     0.007504
PD2393   PD        0.634570    0.142715    0.470784     0.005394
PD2394   PD        0.634652    0.178794    0.503080     0.005394
AU2395   AU        0.667196    0.144615    0.500325     0.007504
PD2396   PD        0.665956    0.181047    0.473400     0.005394
PD2397   PD        0.700193    0.146592    0.469681     0.005394
PD2398   PD        0.700629    0.180779    0.502442     0.005394
PD2399   PD        0.736389    0.180547    0.468908     0.005394
PD2400   PD        0.072224    0.251541    0.472774     0.005394
PD2401   PD        0.046215    0.233397    0.443392     0.005394
PD2402   PD        0.105780    0.250823    0.503342     0.005394
AU2403   AU        0.136294    0.214791    0.502530     0.007504
PD2404   PD        0.136209    0.250154    0.471362     0.005394
AU2405   AU        0.171370    0.214077    0.472778     0.007504
AU2406   AU        0.169421    0.249124    0.501780     0.007504
AU2407   AU        0.201921    0.214478    0.502056     0.007504
PD2408   PD        0.202785    0.248422    0.472034     0.005394
AU2409   AU        0.235536    0.214283    0.471721     0.007504
PD2410   PD        0.236556    0.251789    0.501613     0.005394
PD2411   PD        0.271678    0.214655    0.501221     0.005394
AU2412   AU        0.268071    0.250263    0.470951     0.007504
AU2413   AU        0.303804    0.213202    0.471386     0.007504
AU2414   AU        0.304000    0.249922    0.500586     0.007504
PD2415   PD        0.336408    0.217006    0.501979     0.005394
AU2416   AU        0.333746    0.251824    0.469729     0.007504
AU2417   AU        0.368124    0.214989    0.469574     0.007504
AU2418   AU        0.368895    0.249272    0.500071     0.007504
PD2419   PD        0.403174    0.214822    0.503339     0.005394
PD2420   PD        0.403212    0.248231    0.473591     0.005394
PD2421   PD        0.436625    0.215020    0.470195     0.005394
AU2422   AU        0.436580    0.252604    0.500967     0.007504
PD2423   PD        0.470322    0.214738    0.501756     0.005394
AU2424   AU        0.468915    0.250086    0.469281     0.007504
PD2425   PD        0.501395    0.214422    0.469805     0.005394
AU2426   AU        0.501812    0.251301    0.502431     0.007504
AU2427   AU        0.535140    0.214209    0.503552     0.007504
PD2428   PD        0.533874    0.248347    0.471557     0.005394
AU2429   AU        0.567562    0.213907    0.470085     0.007504
PD2430   PD        0.569220    0.248945    0.501493     0.005394
AU2431   AU        0.600694    0.213873    0.503179     0.007504
AU2432   AU        0.600747    0.251552    0.472550     0.007504
PD2433   PD        0.636727    0.215752    0.470058     0.005394
AU2434   AU        0.634808    0.252253    0.501838     0.007504
PD2435   PD        0.668401    0.218096    0.500912     0.005394
PD2436   PD        0.668849    0.249443    0.470891     0.005394
AU2437   AU        0.700871    0.213743    0.469965     0.007504
PD2438   PD        0.702004    0.249511    0.500412     0.005394
PD2439   PD        0.737280    0.218126    0.503755     0.005394
AU2440   AU        0.734638    0.250470    0.468673     0.007504
PD2441   PD        0.767180    0.216785    0.467561     0.005394
PD2442   PD        0.767886    0.253710    0.502439     0.005394
AU2443   AU        0.799189    0.251099    0.469156     0.007504
PD2444   PD        0.071182    0.284102    0.504615     0.005394
AU2445   AU        0.070114    0.320991    0.471721     0.007504
PD2446   PD        0.103391    0.286246    0.470491     0.005394
AU2447   AU        0.102196    0.322356    0.502317     0.007504
AU2448   AU        0.135580    0.288266    0.501058     0.007504
AU2449   AU        0.137080    0.322914    0.470659     0.007504
AU2450   AU        0.170808    0.285164    0.471979     0.007504
AU2451   AU        0.170769    0.321771    0.502302     0.007504
AU2452   AU        0.203211    0.285751    0.501546     0.007504
AU2453   AU        0.200763    0.320415    0.471496     0.007504
AU2454   AU        0.237019    0.287161    0.470105     0.007504
AU2455   AU        0.236407    0.320790    0.501683     0.007504
AU2456   AU        0.269072    0.285426    0.502764     0.007504
AU2457   AU        0.269053    0.322573    0.470214     0.007504
AU2458   AU        0.300769    0.285645    0.470835     0.007504
AU2459   AU        0.300625    0.322741    0.502981     0.007504
AU2460   AU        0.334253    0.287037    0.502073     0.007504
AU2461   AU        0.334209    0.320262    0.471917     0.007504
AU2462   AU        0.368168    0.285809    0.471346     0.007504
PD2463   PD        0.367746    0.320154    0.502353     0.005394
AU2464   AU        0.404097    0.286094    0.499327     0.007504
AU2465   AU        0.403013    0.321751    0.469949     0.007504
AU2466   AU        0.437628    0.288003    0.468726     0.007504
AU2467   AU        0.435714    0.320396    0.501211     0.007504
AU2468   AU        0.468692    0.285397    0.501515     0.007504
PD2469   PD        0.468419    0.320689    0.472237     0.005394
PD2470   PD        0.503246    0.287424    0.470779     0.005394
AU2471   AU        0.501180    0.321826    0.502856     0.007504
PD2472   PD        0.536314    0.284574    0.503441     0.005394
AU2473   AU        0.535321    0.323626    0.471614     0.007504
AU2474   AU        0.568742    0.285344    0.470448     0.007504
AU2475   AU        0.568730    0.320859    0.501671     0.007504
PD2476   PD        0.602699    0.287354    0.500988     0.005394
AU2477   AU        0.602901    0.321543    0.469537     0.007504
PD2478   PD        0.637267    0.289083    0.471807     0.005394
AU2479   AU        0.637182    0.324832    0.502217     0.007504
PD2480   PD        0.670441    0.285008    0.501646     0.005394
PD2481   PD        0.667642    0.322717    0.470010     0.005394
AU2482   AU        0.701344    0.285888    0.471170     0.007504
AU2483   AU        0.702703    0.322963    0.500127     0.007504
AU2484   AU        0.734287    0.287324    0.500484     0.007504
AU2485   AU        0.734957    0.322450    0.469921     0.007504
AU2486   AU        0.767136    0.288788    0.470160     0.007504
AU2487   AU        0.768418    0.324788    0.502115     0.007504
PD2488   PD        0.800023    0.289781    0.499996     0.005394
AU2489   AU        0.801171    0.322986    0.468267     0.007504
AU2490   AU        0.069869    0.358239    0.502771     0.007504
AU2491   AU        0.069243    0.393410    0.472589     0.007504
AU2492   AU        0.101479    0.358748    0.469167     0.007504
AU2493   AU        0.104888    0.392159    0.501697     0.007504
PD2494   PD        0.138928    0.357648    0.501429     0.005394
AU2495   AU        0.135359    0.390835    0.471540     0.007504
PD2496   PD        0.170570    0.358526    0.470159     0.005394
PD2497   PD        0.169899    0.392270    0.502180     0.005394
AU2498   AU        0.201433    0.358481    0.500459     0.007504
AU2499   AU        0.202260    0.392415    0.470281     0.007504
PD2500   PD        0.235513    0.357127    0.470688     0.005394
AU2501   AU        0.233741    0.391826    0.504077     0.007504
PD2502   PD        0.270925    0.357148    0.501422     0.005394
PD2503   PD        0.268306    0.394037    0.471564     0.005394
AU2504   AU        0.300306    0.358848    0.469727     0.007504
AU2505   AU        0.301994    0.393129    0.503707     0.007504
AU2506   AU        0.335262    0.359071    0.501698     0.007504
AU2507   AU        0.334874    0.394035    0.469446     0.007504
AU2508   AU        0.367370    0.356830    0.470236     0.007504
AU2509   AU        0.369768    0.390961    0.502158     0.007504
AU2510   AU        0.400274    0.355655    0.502443     0.007504
AU2511   AU        0.401539    0.393831    0.470677     0.007504
AU2512   AU        0.436188    0.356748    0.469600     0.007504
AU2513   AU        0.435077    0.390964    0.502063     0.007504
AU2514   AU        0.468537    0.357295    0.502833     0.007504
AU2515   AU        0.467910    0.391354    0.472243     0.007504
AU2516   AU        0.502568    0.358004    0.473389     0.007504
AU2517   AU        0.502411    0.393443    0.502649     0.007504
AU2518   AU        0.536702    0.359441    0.503937     0.007504
AU2519   AU        0.538046    0.393675    0.470316     0.007504
AU2520   AU        0.568869    0.356670    0.470397     0.007504
AU2521   AU        0.567578    0.394513    0.502501     0.007504
AU2522   AU        0.600207    0.356531    0.502103     0.007504
AU2523   AU        0.601466    0.395012    0.471679     0.007504
AU2524   AU        0.635314    0.359346    0.471496     0.007504
PD2525   PD        0.635867    0.396558    0.503866     0.005394
PD2526   PD        0.670047    0.359348    0.504106     0.005394
AU2527   AU        0.669569    0.395517    0.471854     0.007504
PD2528   PD        0.699571    0.357650    0.471302     0.005394
AU2529   AU        0.702823    0.392733    0.501895     0.007504
AU2530   AU        0.734865    0.357719    0.500775     0.007504
AU2531   AU        0.733713    0.395116    0.470334     0.007504
AU2532   AU        0.764668    0.358847    0.471505     0.007504
AU2533   AU        0.764534    0.391780    0.499845     0.007504
PD2534   PD        0.798833    0.356462    0.500514     0.005394
AU2535   AU        0.799211    0.393670    0.471469     0.007504
PD2536   PD        0.007799    0.391252    0.471740     0.005394
PD2537   PD        0.068668    0.431790    0.502927     0.005394
AU2538   AU        0.069651    0.462677    0.470314     0.007504
AU2539   AU        0.102625    0.425880    0.471972     0.007504
AU2540   AU        0.103401    0.465241    0.501635     0.007504
AU2541   AU        0.137833    0.428890    0.500177     0.007504
PD2542   PD        0.134079    0.465515    0.468356     0.005394
PD2543   PD        0.169415    0.427859    0.469622     0.005394
AU2544   AU        0.169226    0.460845    0.501068     0.007504
AU2545   AU        0.202489    0.428557    0.503167     0.007504
PD2546   PD        0.201818    0.463177    0.470246     0.005394
AU2547   AU        0.235817    0.429362    0.472648     0.007504
AU2548   AU        0.234967    0.463177    0.502513     0.007504
AU2549   AU        0.270170    0.429082    0.501218     0.007504
AU2550   AU        0.269219    0.463928    0.469938     0.007504
PD2551   PD        0.300925    0.426847    0.471598     0.005394
AU2552   AU        0.303140    0.463798    0.499351     0.007504
AU2553   AU        0.334691    0.428999    0.502312     0.007504
AU2554   AU        0.335031    0.465571    0.469583     0.007504
AU2555   AU        0.368086    0.431246    0.472096     0.007504
AU2556   AU        0.366967    0.464358    0.503799     0.007504
AU2557   AU        0.398562    0.429277    0.502650     0.007504
AU2558   AU        0.402511    0.465769    0.473402     0.007504
PD2559   PD        0.435627    0.428518    0.473430     0.005394
AU2560   AU        0.436357    0.464041    0.502471     0.007504
AU2561   AU        0.469809    0.428171    0.503189     0.007504
AU2562   AU        0.468269    0.465172    0.471477     0.007504
AU2563   AU        0.503047    0.428664    0.471250     0.007504
AU2564   AU        0.502441    0.464554    0.502106     0.007504
AU2565   AU        0.535180    0.428157    0.503712     0.007504
AU2566   AU        0.535782    0.464674    0.472675     0.007504
AU2567   AU        0.569174    0.429147    0.470871     0.007504
AU2568   AU        0.569594    0.465624    0.502419     0.007504
AU2569   AU        0.601044    0.428607    0.504072     0.007504
AU2570   AU        0.602489    0.463790    0.471562     0.007504
PD2571   PD        0.634997    0.428421    0.471204     0.005394
AU2572   AU        0.633873    0.464187    0.505184     0.007504
PD2573   PD        0.667564    0.428590    0.503377     0.005394
PD2574   PD        0.667278    0.464654    0.472958     0.005394
PD2575   PD        0.701655    0.428400    0.471624     0.005394
PD2576   PD        0.700534    0.464286    0.502202     0.005394
PD2577   PD        0.732920    0.427306    0.503636     0.005394
PD2578   PD        0.733545    0.462921    0.472901     0.005394
AU2579   AU        0.767399    0.428473    0.470648     0.007504
AU2580   AU        0.766589    0.463576    0.500751     0.007504
PD2581   PD        0.798592    0.428068    0.503374     0.005394
PD2582   PD        0.801755    0.465077    0.471563     0.005394
PD2583   PD        0.832384    0.429243    0.469535     0.005394
AU2584   AU        0.070728    0.502720    0.501155     0.007504
AU2585   AU        0.074181    0.535167    0.468325     0.007504
PD2586   PD        0.105210    0.500132    0.469581     0.005394
AU2587   AU        0.102125    0.535638    0.500116     0.007504
AU2588   AU        0.138703    0.498113    0.499745     0.007504
PD2589   PD        0.137695    0.532770    0.469963     0.005394
PD2590   PD        0.170570    0.497656    0.467661     0.005394
PD2591   PD        0.170884    0.533903    0.498891     0.005394
AU2592   AU        0.202048    0.498005    0.501452     0.007504
PD2593   PD        0.201779    0.530796    0.470430     0.005394
AU2594   AU        0.235133    0.498459    0.470348     0.007504
AU2595   AU        0.235137    0.533789    0.500352     0.007504
AU2596   AU        0.270962    0.497767    0.500853     0.007504
AU2597   AU        0.268118    0.534890    0.472142     0.007504
PD2598   PD        0.301919    0.501606    0.469685     0.005394
AU2599   AU        0.300595    0.535330    0.502422     0.007504
PD2600   PD        0.335057    0.500962    0.503205     0.005394
AU2601   AU        0.334763    0.535097    0.469419     0.007504
AU2602   AU        0.369511    0.500456    0.471386     0.007504
PD2603   PD        0.366255    0.535606    0.500888     0.005394
AU2604   AU        0.401816    0.498999    0.503768     0.007504
AU2605   AU        0.403975    0.536020    0.471954     0.007504
PD2606   PD        0.434488    0.500498    0.471446     0.005394
AU2607   AU        0.436342    0.533099    0.502526     0.007504
AU2608   AU        0.469514    0.500458    0.502667     0.007504
AU2609   AU        0.469180    0.535837    0.469920     0.007504
AU2610   AU        0.502316    0.498188    0.473259     0.007504
PD2611   PD        0.501928    0.536135    0.500648     0.005394
AU2612   AU        0.535254    0.502074    0.501663     0.007504
PD2613   PD        0.535863    0.534811    0.471602     0.005394
AU2614   AU        0.569153    0.500525    0.472648     0.007504
PD2615   PD        0.567972    0.536360    0.500647     0.005394
AU2616   AU        0.602288    0.501060    0.503402     0.007504
AU2617   AU        0.601779    0.536282    0.471839     0.007504
AU2618   AU        0.635428    0.499713    0.472366     0.007504
AU2619   AU        0.634652    0.535530    0.502516     0.007504
AU2620   AU        0.665897    0.499714    0.503525     0.007504
PD2621   PD        0.668279    0.535666    0.472591     0.005394
AU2622   AU        0.700702    0.499784    0.471663     0.007504
AU2623   AU        0.700201    0.535234    0.504172     0.007504
PD2624   PD        0.731971    0.499214    0.502428     0.005394
PD2625   PD        0.734214    0.533861    0.472612     0.005394
PD2626   PD        0.764825    0.498146    0.469538     0.005394
PD2627   PD        0.768032    0.535489    0.503100     0.005394
PD2628   PD        0.798112    0.502796    0.500624     0.005394
PD2629   PD        0.841068    0.519813    0.521097     0.005394
AU2630   AU        0.071129    0.570923    0.497982     0.007504
PD2631   PD        0.070660    0.607261    0.466822     0.005394
AU2632   AU        0.104885    0.570115    0.469935     0.007504
PD2633   PD        0.100306    0.605813    0.500188     0.005394
PD2634   PD        0.136323    0.569387    0.501001     0.005394
PD2635   PD        0.137222    0.602809    0.467697     0.005394
AU2636   AU        0.169983    0.570095    0.468915     0.007504
PD2637   PD        0.165959    0.607183    0.501033     0.005394
AU2638   AU        0.201864    0.571956    0.500014     0.007504
PD2639   PD        0.200596    0.607721    0.470840     0.005394
AU2640   AU        0.234819    0.570808    0.467510     0.007504
PD2641   PD        0.236425    0.608229    0.499431     0.005394
AU2642   AU        0.266994    0.571533    0.501403     0.007504
AU2643   AU        0.269165    0.607893    0.467945     0.007504
AU2644   AU        0.301135    0.570689    0.468999     0.007504
PD2645   PD        0.300498    0.608799    0.500849     0.005394
PD2646   PD        0.332133    0.573378    0.502055     0.005394
PD2647   PD        0.332876    0.607086    0.467933     0.005394
AU2648   AU        0.370226    0.571161    0.470622     0.007504
PD2649   PD        0.368666    0.604094    0.501264     0.005394
PD2650   PD        0.400992    0.570495    0.501695     0.005394
AU2651   AU        0.404674    0.606623    0.472341     0.007504
AU2652   AU        0.435424    0.570772    0.472651     0.007504
AU2653   AU        0.436393    0.607422    0.502610     0.007504
AU2654   AU        0.469223    0.571771    0.501086     0.007504
PD2655   PD        0.469040    0.607478    0.471604     0.005394
AU2656   AU        0.504463    0.573572    0.471940     0.007504
PD2657   PD        0.504594    0.604918    0.504043     0.005394
AU2658   AU        0.536242    0.569493    0.501663     0.007504
AU2659   AU        0.537659    0.608992    0.472142     0.007504
AU2660   AU        0.568716    0.571775    0.471873     0.007504
PD2661   PD        0.569273    0.604696    0.503743     0.005394
AU2662   AU        0.603588    0.572126    0.503677     0.007504
AU2663   AU        0.601675    0.607280    0.471114     0.007504
PD2664   PD        0.635374    0.572451    0.472355     0.005394
PD2665   PD        0.635359    0.604762    0.502541     0.005394
AU2666   AU        0.668695    0.570398    0.503514     0.007504
PD2667   PD        0.669149    0.605910    0.474358     0.005394
AU2668   AU        0.702421    0.570418    0.471346     0.007504
AU2669   AU        0.704450    0.607284    0.502631     0.007504
AU2670   AU        0.732270    0.570107    0.503865     0.007504
PD2671   PD        0.736206    0.605010    0.469725     0.005394
PD2672   PD        0.764193    0.569512    0.471876     0.005394
AU2673   AU        0.766494    0.606514    0.503644     0.007504
AU2674   AU        0.799360    0.569853    0.501201     0.007504
PD2675   PD        0.798128    0.604737    0.471440     0.005394
PD2676   PD        0.102549    0.638312    0.467264     0.005394
PD2677   PD        0.132917    0.644674    0.500566     0.005394
PD2678   PD        0.135059    0.675504    0.467921     0.005394
PD2679   PD        0.171243    0.640947    0.468513     0.005394
AU2680   AU        0.166410    0.677956    0.500811     0.007504
PD2681   PD        0.199542    0.642065    0.499730     0.005394
AU2682   AU        0.202803    0.676431    0.469548     0.007504
PD2683   PD        0.235341    0.642951    0.467852     0.005394
PD2684   PD        0.237348    0.679764    0.500964     0.005394
PD2685   PD        0.268171    0.641859    0.500660     0.005394
PD2686   PD        0.268596    0.677710    0.471131     0.005394
PD2687   PD        0.301279    0.643584    0.468255     0.005394
PD2688   PD        0.302157    0.676802    0.502452     0.005394
PD2689   PD        0.335994    0.639430    0.501405     0.005394
AU2690   AU        0.337119    0.676058    0.470717     0.007504
AU2691   AU        0.370248    0.641456    0.471510     0.007504
PD2692   PD        0.367509    0.677220    0.503402     0.005394
PD2693   PD        0.402267    0.643250    0.501594     0.005394
AU2694   AU        0.404929    0.676180    0.471660     0.007504
AU2695   AU        0.435763    0.640672    0.469616     0.007504
PD2696   PD        0.437024    0.679627    0.502738     0.005394
AU2697   AU        0.469964    0.641102    0.501671     0.007504
PD2698   PD        0.470429    0.677006    0.471470     0.005394
AU2699   AU        0.504349    0.644314    0.471597     0.007504
AU2700   AU        0.504350    0.676321    0.503241     0.007504
PD2701   PD        0.538157    0.641601    0.503733     0.005394
AU2702   AU        0.537198    0.676820    0.471506     0.007504
AU2703   AU        0.570286    0.641382    0.470383     0.007504
AU2704   AU        0.568594    0.677421    0.503080     0.007504
AU2705   AU        0.603623    0.640943    0.503487     0.007504
AU2706   AU        0.603677    0.674409    0.470532     0.007504
AU2707   AU        0.634795    0.641159    0.471515     0.007504
PD2708   PD        0.635872    0.675649    0.503151     0.005394
PD2709   PD        0.668295    0.639949    0.503554     0.005394
PD2710   PD        0.669801    0.675438    0.473882     0.005394
PD2711   PD        0.704816    0.641004    0.472011     0.005394
PD2712   PD        0.701555    0.674269    0.502709     0.005394
PD2713   PD        0.731841    0.638215    0.504122     0.005394
PD2714   PD        0.813168    0.669812    0.544210     0.005394
PD2715   PD        0.765795    0.640965    0.473428     0.005394
PD2716   PD        0.167323    0.709115    0.468111     0.005394
AU2717   AU        0.199281    0.713270    0.501738     0.007504
PD2718   PD        0.200788    0.745198    0.464545     0.005394
AU2719   AU        0.233927    0.711453    0.470690     0.007504
AU2720   AU        0.233575    0.748857    0.496863     0.007504
AU2721   AU        0.268094    0.716422    0.500803     0.007504
PD2722   PD        0.264122    0.749964    0.466698     0.005394
PD2723   PD        0.300825    0.715504    0.468312     0.005394
PD2724   PD        0.303776    0.752781    0.501988     0.005394
PD2725   PD        0.332090    0.713471    0.503856     0.005394
PD2726   PD        0.335211    0.751551    0.471617     0.005394
PD2727   PD        0.369444    0.711726    0.470578     0.005394
PD2728   PD        0.373006    0.745855    0.500893     0.005394
AU2729   AU        0.403405    0.711721    0.502941     0.007504
PD2730   PD        0.404718    0.747352    0.472501     0.005394
PD2731   PD        0.436494    0.715402    0.469454     0.005394
AU2732   AU        0.436349    0.747943    0.501728     0.007504
PD2733   PD        0.469352    0.713992    0.503045     0.005394
AU2734   AU        0.473031    0.748262    0.471736     0.007504
AU2735   AU        0.502421    0.712362    0.471395     0.007504
PD2736   PD        0.505248    0.747147    0.503942     0.005394
AU2737   AU        0.535167    0.711441    0.504947     0.007504
PD2738   PD        0.536687    0.748428    0.471296     0.005394
AU2739   AU        0.570142    0.710762    0.471288     0.007504
AU2740   AU        0.569016    0.745099    0.502534     0.007504
PD2741   PD        0.600644    0.710379    0.503099     0.005394
PD2742   PD        0.601893    0.749394    0.470741     0.005394
PD2743   PD        0.635064    0.710826    0.471429     0.005394
AU2744   AU        0.633988    0.745504    0.499284     0.007504
PD2745   PD        0.668538    0.711800    0.503496     0.005394
PD2746   PD        0.666935    0.748118    0.470862     0.005394
PD2747   PD        0.700061    0.712479    0.472752     0.005394
PD2748   PD        0.199294    0.784421    0.496124     0.005394
PD2749   PD        0.269783    0.855030    0.499100     0.005394
PD2750   PD        0.268921    0.817593    0.467948     0.005394
PD2751   PD        0.302018    0.781584    0.473760     0.005394
PD2752   PD        0.308848    0.818483    0.504039     0.005394
PD2753   PD        0.342229    0.786266    0.501500     0.005394
PD2754   PD        0.334587    0.814495    0.469092     0.005394
PD2755   PD        0.372037    0.779454    0.467273     0.005394
PD2756   PD        0.372186    0.819423    0.505142     0.005394
PD2757   PD        0.408065    0.784196    0.503077     0.005394
PD2758   PD        0.406819    0.817852    0.468920     0.005394
PD2759   PD        0.437393    0.784030    0.469133     0.005394
PD2760   PD        0.440014    0.816556    0.503136     0.005394
AU2761   AU        0.470386    0.781272    0.502376     0.007504
AU2762   AU        0.470426    0.817962    0.472778     0.007504
PD2763   PD        0.503220    0.783632    0.470017     0.005394
PD2764   PD        0.501792    0.817516    0.502666     0.005394
PD2765   PD        0.537675    0.781966    0.503431     0.005394
PD2766   PD        0.536328    0.818353    0.471084     0.005394
PD2767   PD        0.568413    0.781964    0.470428     0.005394
PD2768   PD        0.565507    0.822124    0.501315     0.005394
AU2769   AU        0.602332    0.780683    0.499539     0.007504
PD2770   PD        0.598575    0.820104    0.474059     0.005394
PD2771   PD        0.636982    0.783918    0.470554     0.005394
PD2772   PD        0.436770    0.849885    0.470056     0.005394
PD2773   PD        0.375223    0.006783    0.535248     0.005394
PD2774   PD        0.369126    0.038406    0.566956     0.005394
PD2775   PD        0.434133    0.002109    0.531248     0.005394
PD2776   PD        0.432459    0.037605    0.564007     0.005394
AU2777   AU        0.470126    0.037707    0.532126     0.007504
PD2778   PD        0.501032    0.038125    0.562844     0.005394
PD2779   PD        0.536691    0.038999    0.535910     0.005394
PD2780   PD        0.205458    0.107839    0.529948     0.005394
PD2781   PD        0.235773    0.105151    0.561612     0.005394
PD2782   PD        0.271096    0.069922    0.560169     0.005394
AU2783   AU        0.271513    0.108564    0.533474     0.007504
AU2784   AU        0.303815    0.073987    0.531191     0.007504
PD2785   PD        0.305101    0.107713    0.564187     0.005394
PD2786   PD        0.336080    0.072433    0.563149     0.005394
AU2787   AU        0.337429    0.109755    0.531821     0.007504
PD2788   PD        0.370223    0.072852    0.529176     0.005394
AU2789   AU        0.366590    0.108136    0.564075     0.007504
AU2790   AU        0.402397    0.074105    0.564793     0.007504
PD2791   PD        0.403580    0.111430    0.532312     0.005394
AU2792   AU        0.434236    0.070556    0.532219     0.007504
PD2793   PD        0.436170    0.107576    0.563614     0.005394
AU2794   AU        0.467257    0.071151    0.562124     0.007504
PD2795   PD        0.465738    0.105595    0.532711     0.005394
PD2796   PD        0.501503    0.072062    0.531570     0.005394
AU2797   AU        0.499387    0.109289    0.562864     0.007504
AU2798   AU        0.534931    0.072988    0.565207     0.007504
AU2799   AU        0.535764    0.110001    0.532318     0.007504
AU2800   AU        0.569797    0.074248    0.534689     0.007504
PD2801   PD        0.569280    0.108729    0.565403     0.005394
PD2802   PD        0.605134    0.070777    0.563053     0.005394
AU2803   AU        0.600173    0.111089    0.533836     0.007504
PD2804   PD        0.635134    0.106408    0.565758     0.005394
PD2805   PD        0.668657    0.110111    0.532930     0.005394
PD2806   PD        0.137167    0.176713    0.531206     0.005394
PD2807   PD        0.170174    0.142728    0.531985     0.005394
AU2808   AU        0.171090    0.177787    0.564243     0.007504
PD2809   PD        0.206382    0.066430    0.624631     0.005394
PD2810   PD        0.202585    0.178756    0.531554     0.005394
PD2811   PD        0.236242    0.144603    0.532269     0.005394
PD2812   PD        0.234801    0.179261    0.562458     0.005394
AU2813   AU        0.269759    0.142660    0.563857     0.007504
AU2814   AU        0.270130    0.178025    0.534342     0.007504
AU2815   AU        0.305635    0.143484    0.535132     0.007504
PD2816   PD        0.303118    0.179563    0.562566     0.005394
PD2817   PD        0.335717    0.144940    0.567415     0.005394
AU2818   AU        0.337284    0.180382    0.531779     0.007504
AU2819   AU        0.367931    0.144354    0.531455     0.007504
PD2820   PD        0.368861    0.179577    0.564631     0.005394
PD2821   PD        0.400542    0.144999    0.562737     0.005394
PD2822   PD        0.402818    0.178710    0.534561     0.005394
PD2823   PD        0.435830    0.144273    0.532653     0.005394
AU2824   AU        0.436836    0.180595    0.563570     0.007504
PD2825   PD        0.466744    0.144978    0.562736     0.005394
PD2826   PD        0.467345    0.181583    0.532328     0.005394
PD2827   PD        0.501645    0.143547    0.533391     0.005394
AU2828   AU        0.501856    0.180147    0.565737     0.007504
PD2829   PD        0.534819    0.144171    0.563345     0.005394
AU2830   AU        0.532715    0.180051    0.532804     0.007504
PD2831   PD        0.567817    0.145469    0.533320     0.005394
AU2832   AU        0.566830    0.178439    0.565195     0.007504
PD2833   PD        0.600624    0.142130    0.566605     0.005394
PD2834   PD        0.600727    0.177158    0.533948     0.005394
PD2835   PD        0.634138    0.142673    0.534064     0.005394
PD2836   PD        0.633849    0.178415    0.563328     0.005394
PD2837   PD        0.668679    0.142466    0.563380     0.005394
AU2838   AU        0.667859    0.180007    0.530922     0.007504
PD2839   PD        0.701535    0.142180    0.530442     0.005394
PD2840   PD        0.702031    0.180192    0.562392     0.005394
PD2841   PD        0.814092    0.158504    0.518551     0.005394
PD2842   PD        0.071476    0.247373    0.533750     0.005394
AU2843   AU        0.137021    0.212530    0.561593     0.007504
PD2844   PD        0.138793    0.249918    0.533528     0.005394
PD2845   PD        0.170013    0.215086    0.531408     0.005394
PD2846   PD        0.171099    0.250689    0.561820     0.005394
PD2847   PD        0.200246    0.210883    0.562398     0.005394
AU2848   AU        0.203932    0.248956    0.532067     0.007504
AU2849   AU        0.236257    0.216229    0.531760     0.007504
PD2850   PD        0.234760    0.250086    0.563908     0.005394
AU2851   AU        0.268706    0.215951    0.562904     0.007504
AU2852   AU        0.268959    0.250206    0.532011     0.007504
PD2853   PD        0.300613    0.212602    0.532215     0.005394
PD2854   PD        0.302520    0.248882    0.560864     0.005394
AU2855   AU        0.336757    0.214617    0.564136     0.007504
AU2856   AU        0.335365    0.250412    0.531847     0.007504
PD2857   PD        0.368762    0.216316    0.533609     0.005394
AU2858   AU        0.369706    0.249686    0.562926     0.007504
AU2859   AU        0.400659    0.214706    0.563321     0.007504
AU2860   AU        0.403068    0.252126    0.532567     0.007504
AU2861   AU        0.434988    0.215079    0.533228     0.007504
AU2862   AU        0.435881    0.249281    0.564757     0.007504
AU2863   AU        0.470495    0.214334    0.563770     0.007504
PD2864   PD        0.469277    0.250235    0.533659     0.005394
PD2865   PD        0.501925    0.212337    0.533522     0.005394
AU2866   AU        0.504272    0.251129    0.565196     0.007504
AU2867   AU        0.534471    0.215362    0.565169     0.007504
AU2868   AU        0.535370    0.248897    0.534656     0.007504
PD2869   PD        0.567104    0.213609    0.534522     0.005394
AU2870   AU        0.566782    0.249055    0.564740     0.007504
PD2871   PD        0.598962    0.214546    0.562639     0.005394
PD2872   PD        0.599268    0.252726    0.532266     0.005394
PD2873   PD        0.635764    0.217742    0.531553     0.005394
AU2874   AU        0.633116    0.249510    0.564712     0.007504
PD2875   PD        0.667624    0.216675    0.563265     0.005394
PD2876   PD        0.669533    0.249838    0.533226     0.005394
AU2877   AU        0.700436    0.214633    0.534262     0.007504
AU2878   AU        0.701576    0.252184    0.563336     0.007504
AU2879   AU        0.736331    0.219083    0.564488     0.007504
PD2880   PD        0.734182    0.253395    0.531917     0.005394
PD2881   PD        0.793963    0.202428    0.557377     0.005394
PD2882   PD        0.068171    0.320325    0.534409     0.005394
PD2883   PD        0.105016    0.284752    0.532774     0.005394
PD2884   PD        0.105259    0.320894    0.563608     0.005394
AU2885   AU        0.138519    0.286466    0.561674     0.007504
PD2886   PD        0.137660    0.323292    0.531206     0.005394
AU2887   AU        0.170037    0.284264    0.530381     0.007504
PD2888   PD        0.167407    0.320613    0.562247     0.005394
PD2889   PD        0.202573    0.285620    0.562972     0.005394
PD2890   PD        0.202964    0.319828    0.531983     0.005394
AU2891   AU        0.235787    0.283488    0.532585     0.007504
AU2892   AU        0.237455    0.319954    0.563691     0.007504
AU2893   AU        0.269398    0.283613    0.562568     0.007504
AU2894   AU        0.268923    0.320932    0.532367     0.007504
AU2895   AU        0.301436    0.286591    0.531895     0.007504
AU2896   AU        0.300592    0.321315    0.565670     0.007504
PD2897   PD        0.335783    0.285235    0.563579     0.005394
AU2898   AU        0.332853    0.322354    0.531832     0.007504
AU2899   AU        0.370411    0.285688    0.531600     0.007504
PD2900   PD        0.371025    0.322537    0.562393     0.005394
AU2901   AU        0.404790    0.285572    0.565188     0.007504
AU2902   AU        0.404440    0.319593    0.533918     0.007504
AU2903   AU        0.435708    0.286214    0.533718     0.007504
PD2904   PD        0.438049    0.321576    0.563858     0.005394
AU2905   AU        0.467575    0.284891    0.564458     0.007504
AU2906   AU        0.467586    0.319921    0.533053     0.007504
AU2907   AU        0.503519    0.285517    0.534096     0.007504
AU2908   AU        0.500930    0.322689    0.565605     0.007504
AU2909   AU        0.534983    0.286631    0.565597     0.007504
PD2910   PD        0.534983    0.322936    0.535487     0.005394
PD2911   PD        0.566864    0.286609    0.533623     0.005394
AU2912   AU        0.568401    0.322219    0.565421     0.007504
PD2913   PD        0.600970    0.285552    0.566050     0.005394
PD2914   PD        0.599180    0.321267    0.533518     0.005394
AU2915   AU        0.635275    0.287629    0.532919     0.007504
PD2916   PD        0.636484    0.319290    0.565224     0.005394
PD2917   PD        0.668457    0.286210    0.564182     0.005394
AU2918   AU        0.668590    0.322423    0.533821     0.007504
PD2919   PD        0.700292    0.287860    0.531834     0.005394
AU2920   AU        0.702390    0.319909    0.563850     0.007504
AU2921   AU        0.735099    0.286150    0.564344     0.007504
PD2922   PD        0.734097    0.322747    0.533228     0.005394
AU2923   AU        0.767984    0.290530    0.531493     0.007504
PD2924   PD        0.763351    0.323038    0.565231     0.005394
AU2925   AU        0.801096    0.323328    0.534026     0.007504
PD2926   PD        0.070088    0.360865    0.565551     0.005394
PD2927   PD        0.071935    0.393711    0.532125     0.005394
AU2928   AU        0.104383    0.357671    0.533058     0.007504
PD2929   PD        0.104502    0.393868    0.564928     0.005394
AU2930   AU        0.137167    0.358807    0.562842     0.007504
PD2931   PD        0.137820    0.393237    0.529799     0.005394
AU2932   AU        0.168821    0.356970    0.532588     0.007504
PD2933   PD        0.168798    0.392398    0.562755     0.005394
PD2934   PD        0.202041    0.354851    0.562304     0.005394
PD2935   PD        0.201718    0.392287    0.535541     0.005394
AU2936   AU        0.235414    0.356354    0.533085     0.007504
PD2937   PD        0.236574    0.394394    0.565129     0.005394
PD2938   PD        0.267952    0.355844    0.564169     0.005394
AU2939   AU        0.267512    0.392291    0.533281     0.007504
PD2940   PD        0.301482    0.357790    0.534729     0.005394
AU2941   AU        0.300867    0.392430    0.563742     0.007504
PD2942   PD        0.335425    0.354901    0.564558     0.005394
PD2943   PD        0.335247    0.392518    0.534638     0.005394
AU2944   AU        0.368428    0.355813    0.531875     0.007504
AU2945   AU        0.368879    0.391310    0.563002     0.007504
PD2946   PD        0.402559    0.357287    0.563468     0.005394
AU2947   AU        0.403149    0.392603    0.532174     0.007504
AU2948   AU        0.434633    0.356486    0.532668     0.007504
AU2949   AU        0.435222    0.391373    0.563784     0.007504
AU2950   AU        0.469010    0.356711    0.563920     0.007504
AU2951   AU        0.469485    0.393329    0.535313     0.007504
AU2952   AU        0.502306    0.356428    0.532905     0.007504
AU2953   AU        0.502839    0.392030    0.565524     0.007504
AU2954   AU        0.534467    0.356546    0.565703     0.007504
AU2955   AU        0.535385    0.391302    0.533073     0.007504
AU2956   AU        0.568383    0.358233    0.533646     0.007504
AU2957   AU        0.567824    0.392687    0.566504     0.007504
PD2958   PD        0.601804    0.356153    0.564600     0.005394
PD2959   PD        0.602778    0.391058    0.534285     0.005394
PD2960   PD        0.634318    0.358099    0.531808     0.005394
PD2961   PD        0.635279    0.392685    0.564010     0.005394
PD2962   PD        0.669945    0.357145    0.564254     0.005394
PD2963   PD        0.669032    0.391481    0.532627     0.005394
AU2964   AU        0.701678    0.356533    0.532316     0.007504
PD2965   PD        0.701436    0.393451    0.563668     0.005394
PD2966   PD        0.734856    0.354602    0.564568     0.005394
AU2967   AU        0.734252    0.394002    0.533183     0.007504
AU2968   AU        0.766158    0.355744    0.530493     0.007504
PD2969   PD        0.766842    0.391987    0.564510     0.005394
PD2970   PD        0.795804    0.357204    0.564519     0.005394
AU2971   AU        0.797560    0.392604    0.531092     0.007504
PD2972   PD        0.071159    0.427514    0.625233     0.005394
PD2973   PD        0.072448    0.465967    0.530741     0.005394
AU2974   AU        0.104525    0.428852    0.531399     0.007504
AU2975   AU        0.104884    0.464776    0.563295     0.007504
AU2976   AU        0.136857    0.426576    0.560985     0.007504
AU2977   AU        0.135316    0.464535    0.530907     0.007504
PD2978   PD        0.168702    0.429150    0.533157     0.005394
AU2979   AU        0.168722    0.465053    0.562635     0.007504
AU2980   AU        0.202673    0.429347    0.565210     0.007504
PD2981   PD        0.201037    0.463612    0.532835     0.005394
AU2982   AU        0.236426    0.426957    0.532986     0.007504
AU2983   AU        0.237402    0.464838    0.563154     0.007504
PD2984   PD        0.267875    0.429496    0.562339     0.005394
PD2985   PD        0.267423    0.465383    0.532495     0.005394
AU2986   AU        0.303151    0.431333    0.531455     0.007504
AU2987   AU        0.300986    0.464265    0.565060     0.007504
PD2988   PD        0.332529    0.426648    0.563498     0.005394
PD2989   PD        0.335692    0.462606    0.532929     0.005394
AU2990   AU        0.366547    0.427632    0.534198     0.007504
AU2991   AU        0.368615    0.462713    0.563271     0.007504
PD2992   PD        0.400079    0.427562    0.563116     0.005394
AU2993   AU        0.405782    0.463347    0.533105     0.007504
PD2994   PD        0.434260    0.427030    0.532048     0.005394
PD2995   PD        0.436206    0.465767    0.566423     0.005394
AU2996   AU        0.469337    0.429284    0.563856     0.007504
AU2997   AU        0.467963    0.463710    0.535084     0.007504
PD2998   PD        0.503713    0.431532    0.534077     0.005394
PD2999   PD        0.502236    0.464003    0.563113     0.005394
AU3000   AU        0.534629    0.428324    0.563725     0.007504
AU3001   AU        0.536594    0.462957    0.534056     0.007504
AU3002   AU        0.568698    0.428205    0.533926     0.007504
PD3003   PD        0.569294    0.463669    0.564039     0.005394
AU3004   AU        0.600798    0.428490    0.565887     0.007504
AU3005   AU        0.600727    0.462760    0.534911     0.007504
PD3006   PD        0.632606    0.427968    0.534776     0.005394
PD3007   PD        0.635382    0.464096    0.564731     0.005394
AU3008   AU        0.667763    0.426656    0.564290     0.007504
AU3009   AU        0.668261    0.464096    0.533913     0.007504
PD3010   PD        0.701783    0.427542    0.532816     0.005394
PD3011   PD        0.699609    0.460763    0.563408     0.005394
PD3012   PD        0.732319    0.428265    0.567586     0.005394
AU3013   AU        0.734311    0.462934    0.534251     0.007504
AU3014   AU        0.766733    0.430028    0.532576     0.007504
AU3015   AU        0.768725    0.465034    0.563136     0.007504
PD3016   PD        0.797271    0.426796    0.561698     0.005394
PD3017   PD        0.801513    0.464515    0.531370     0.005394
PD3018   PD        0.077027    0.559319    0.605852     0.005394
AU3019   AU        0.070614    0.536577    0.530152     0.007504
AU3020   AU        0.104409    0.499663    0.531423     0.007504
AU3021   AU        0.104385    0.533744    0.563770     0.007504
PD3022   PD        0.138761    0.501067    0.563005     0.005394
AU3023   AU        0.135792    0.534720    0.529994     0.007504
AU3024   AU        0.169109    0.499069    0.533124     0.007504
PD3025   PD        0.169968    0.536672    0.562746     0.005394
AU3026   AU        0.202670    0.499623    0.563608     0.007504
AU3027   AU        0.203243    0.534136    0.532697     0.007504
AU3028   AU        0.236006    0.501261    0.531212     0.007504
AU3029   AU        0.234319    0.537603    0.563138     0.007504
AU3030   AU        0.269274    0.500142    0.564361     0.007504
AU3031   AU        0.267585    0.535503    0.531855     0.007504
AU3032   AU        0.300183    0.497581    0.532421     0.007504
PD3033   PD        0.301455    0.532886    0.562202     0.005394
PD3034   PD        0.335424    0.498094    0.565318     0.005394
PD3035   PD        0.333828    0.533562    0.535450     0.005394
AU3036   AU        0.369544    0.501108    0.532819     0.007504
AU3037   AU        0.368982    0.534865    0.564116     0.007504
AU3038   AU        0.401368    0.498546    0.565355     0.007504
AU3039   AU        0.403091    0.534674    0.533612     0.007504
AU3040   AU        0.435525    0.500714    0.533037     0.007504
AU3041   AU        0.436807    0.534726    0.564024     0.007504
AU3042   AU        0.469174    0.498150    0.563521     0.007504
AU3043   AU        0.469571    0.535862    0.533516     0.007504
AU3044   AU        0.502245    0.499550    0.532662     0.007504
AU3045   AU        0.502172    0.536268    0.563477     0.007504
AU3046   AU        0.537301    0.500392    0.565309     0.007504
AU3047   AU        0.536613    0.536885    0.534107     0.007504
AU3048   AU        0.568335    0.500823    0.533937     0.007504
AU3049   AU        0.569917    0.533776    0.564827     0.007504
AU3050   AU        0.601391    0.498621    0.564081     0.007504
AU3051   AU        0.602631    0.534999    0.533394     0.007504
AU3052   AU        0.635355    0.499999    0.534185     0.007504
AU3053   AU        0.633085    0.534518    0.564355     0.007504
AU3054   AU        0.666961    0.501012    0.563284     0.007504
PD3055   PD        0.666527    0.533687    0.532134     0.005394
PD3056   PD        0.700784    0.498267    0.534178     0.005394
AU3057   AU        0.700776    0.533743    0.563479     0.007504
AU3058   AU        0.732761    0.499468    0.564059     0.007504
AU3059   AU        0.735219    0.533531    0.533279     0.007504
AU3060   AU        0.767364    0.498746    0.530866     0.007504
AU3061   AU        0.767552    0.532980    0.562468     0.007504
PD3062   PD        0.798075    0.494090    0.562418     0.005394
PD3063   PD        0.855393    0.565813    0.598270     0.005394
AU3064   AU        0.105214    0.571208    0.531903     0.007504
PD3065   PD        0.099348    0.602919    0.562920     0.005394
PD3066   PD        0.136328    0.571402    0.562036     0.005394
AU3067   AU        0.137520    0.603742    0.531715     0.007504
PD3068   PD        0.169067    0.568709    0.531699     0.005394
AU3069   AU        0.170187    0.606681    0.561762     0.007504
PD3070   PD        0.202911    0.572093    0.562863     0.005394
PD3071   PD        0.201653    0.606839    0.528970     0.005394
AU3072   AU        0.235446    0.571256    0.531191     0.007504
PD3073   PD        0.234345    0.604481    0.565356     0.005394
PD3074   PD        0.268050    0.572343    0.563576     0.005394
AU3075   AU        0.269980    0.606928    0.532345     0.007504
PD3076   PD        0.301499    0.569448    0.533994     0.005394
PD3077   PD        0.302728    0.605550    0.564463     0.005394
PD3078   PD        0.333913    0.568227    0.564638     0.005394
AU3079   AU        0.334570    0.606621    0.533692     0.007504
AU3080   AU        0.367178    0.570410    0.534428     0.007504
PD3081   PD        0.369663    0.608478    0.564528     0.005394
PD3082   PD        0.402209    0.569143    0.563503     0.005394
AU3083   AU        0.401537    0.608379    0.533593     0.007504
AU3084   AU        0.434103    0.571190    0.530496     0.007504
AU3085   AU        0.433723    0.607810    0.562710     0.007504
PD3086   PD        0.468848    0.574230    0.564484     0.005394
PD3087   PD        0.470276    0.605475    0.531609     0.005394
PD3088   PD        0.501618    0.571145    0.532295     0.005394
AU3089   AU        0.503392    0.607947    0.564551     0.007504
AU3090   AU        0.536749    0.570662    0.563781     0.007504
PD3091   PD        0.534782    0.604541    0.535108     0.005394
PD3092   PD        0.570501    0.569840    0.535289     0.005394
AU3093   AU        0.567172    0.607304    0.565944     0.007504
AU3094   AU        0.601789    0.570112    0.564816     0.007504
PD3095   PD        0.600761    0.605543    0.533045     0.005394
AU3096   AU        0.636626    0.571361    0.533301     0.007504
AU3097   AU        0.634410    0.606835    0.563775     0.007504
AU3098   AU        0.666661    0.569484    0.564856     0.007504
AU3099   AU        0.668261    0.605232    0.535032     0.007504
AU3100   AU        0.700264    0.572778    0.534384     0.007504
AU3101   AU        0.702283    0.605173    0.565466     0.007504
AU3102   AU        0.734410    0.568284    0.564881     0.007504
AU3103   AU        0.733422    0.605007    0.535213     0.007504
PD3104   PD        0.768446    0.570609    0.534432     0.005394
AU3105   AU        0.766994    0.602863    0.563801     0.007504
PD3106   PD        0.134053    0.642260    0.564518     0.005394
PD3107   PD        0.104133    0.681919    0.557716     0.005394
AU3108   AU        0.167563    0.642938    0.533719     0.007504
PD3109   PD        0.169730    0.678410    0.563352     0.005394
PD3110   PD        0.203091    0.641173    0.564391     0.005394
AU3111   AU        0.202225    0.676561    0.531946     0.007504
PD3112   PD        0.234873    0.643433    0.532749     0.005394
PD3113   PD        0.238802    0.677815    0.563386     0.005394
PD3114   PD        0.268212    0.640400    0.564381     0.005394
AU3115   AU        0.267970    0.677859    0.531523     0.007504
PD3116   PD        0.299016    0.642495    0.533480     0.005394
PD3117   PD        0.300428    0.678786    0.564792     0.005394
PD3118   PD        0.334895    0.641788    0.565620     0.005394
PD3119   PD        0.334886    0.679534    0.533301     0.005394
PD3120   PD        0.366792    0.643873    0.534872     0.005394
PD3121   PD        0.369563    0.674054    0.563702     0.005394
PD3122   PD        0.403209    0.643721    0.564099     0.005394
AU3123   AU        0.403429    0.676576    0.532087     0.007504
AU3124   AU        0.436766    0.641519    0.532134     0.007504
PD3125   PD        0.435088    0.677333    0.563778     0.005394
AU3126   AU        0.468060    0.643037    0.565164     0.007504
AU3127   AU        0.471456    0.675522    0.533457     0.007504
AU3128   AU        0.504105    0.641714    0.534598     0.007504
AU3129   AU        0.502265    0.676223    0.565119     0.007504
AU3130   AU        0.536545    0.643318    0.565706     0.007504
AU3131   AU        0.536278    0.678583    0.535073     0.007504
AU3132   AU        0.569945    0.641398    0.533999     0.007504
PD3133   PD        0.570294    0.677185    0.562947     0.005394
PD3134   PD        0.601898    0.640247    0.564165     0.005394
AU3135   AU        0.601908    0.677207    0.532056     0.007504
PD3136   PD        0.635839    0.640726    0.533328     0.005394
AU3137   AU        0.633384    0.674991    0.564636     0.007504
AU3138   AU        0.668612    0.643525    0.565115     0.007504
AU3139   AU        0.670581    0.678435    0.534881     0.007504
AU3140   AU        0.699482    0.640269    0.536080     0.007504
PD3141   PD        0.700655    0.676984    0.564873     0.005394
PD3142   PD        0.737708    0.642306    0.563374     0.005394
AU3143   AU        0.734416    0.674828    0.533665     0.007504
PD3144   PD        0.168955    0.712229    0.533491     0.005394
AU3145   AU        0.202886    0.709849    0.563373     0.007504
PD3146   PD        0.171175    0.753164    0.560807     0.005394
PD3147   PD        0.234817    0.714567    0.531648     0.005394
PD3148   PD        0.230498    0.782975    0.529216     0.005394
PD3149   PD        0.232065    0.748519    0.562745     0.005394
PD3150   PD        0.265426    0.750238    0.533811     0.005394
PD3151   PD        0.299263    0.714794    0.532788     0.005394
PD3152   PD        0.306810    0.749249    0.561953     0.005394
AU3153   AU        0.335186    0.714008    0.564319     0.007504
PD3154   PD        0.339589    0.747412    0.531304     0.005394
PD3155   PD        0.370544    0.713865    0.533321     0.005394
PD3156   PD        0.369975    0.749529    0.565279     0.005394
PD3157   PD        0.402020    0.712891    0.563907     0.005394
AU3158   AU        0.403563    0.747453    0.534487     0.007504
AU3159   AU        0.437898    0.712954    0.532019     0.007504
PD3160   PD        0.435991    0.748739    0.564310     0.005394
AU3161   AU        0.469574    0.712424    0.564461     0.007504
AU3162   AU        0.469417    0.748397    0.534315     0.007504
AU3163   AU        0.502427    0.711823    0.534103     0.007504
PD3164   PD        0.501038    0.749990    0.565897     0.005394
PD3165   PD        0.536180    0.710586    0.567232     0.005394
AU3166   AU        0.535641    0.744900    0.534193     0.007504
AU3167   AU        0.568866    0.711371    0.534615     0.007504
AU3168   AU        0.567819    0.745403    0.563725     0.007504
AU3169   AU        0.602717    0.712450    0.564061     0.007504
AU3170   AU        0.602192    0.747151    0.530632     0.007504
AU3171   AU        0.634182    0.710333    0.532603     0.007504
PD3172   PD        0.656026    0.803819    0.580655     0.005394
PD3173   PD        0.664769    0.715570    0.561823     0.005394
PD3174   PD        0.667743    0.744997    0.531946     0.005394
AU3175   AU        0.702902    0.713107    0.533690     0.007504
PD3176   PD        0.276473    0.789629    0.561970     0.005394
PD3177   PD        0.298000    0.784818    0.531354     0.005394
PD3178   PD        0.338027    0.783485    0.561291     0.005394
PD3179   PD        0.293381    0.883642    0.564860     0.005394
PD3180   PD        0.374193    0.784473    0.533130     0.005394
AU3181   AU        0.373670    0.819650    0.564467     0.007504
AU3182   AU        0.404525    0.783337    0.566136     0.007504
PD3183   PD        0.406560    0.820505    0.532891     0.005394
AU3184   AU        0.437825    0.781535    0.533298     0.007504
PD3185   PD        0.437612    0.819100    0.566955     0.005394
AU3186   AU        0.469081    0.782520    0.565400     0.007504
PD3187   PD        0.469777    0.816006    0.534781     0.005394
AU3188   AU        0.503209    0.781726    0.534889     0.007504
PD3189   PD        0.472587    0.819258    0.593880     0.005394
AU3190   AU        0.536651    0.782663    0.563775     0.007504
AU3191   AU        0.533526    0.817636    0.531892     0.007504
AU3192   AU        0.568652    0.780564    0.534181     0.007504
PD3193   PD        0.600333    0.784682    0.568241     0.005394
PD3194   PD        0.273993    0.106469    0.596469     0.005394
PD3195   PD        0.305763    0.108492    0.628996     0.005394
PD3196   PD        0.337499    0.110268    0.595067     0.005394
PD3197   PD        0.369684    0.076832    0.596732     0.005394
AU3198   AU        0.369387    0.107505    0.627602     0.007504
PD3199   PD        0.404188    0.006915    0.634242     0.005394
PD3200   PD        0.401763    0.110825    0.593774     0.005394
AU3201   AU        0.436552    0.072596    0.594992     0.007504
AU3202   AU        0.434781    0.108435    0.626590     0.007504
PD3203   PD        0.468593    0.072234    0.626329     0.005394
AU3204   AU        0.468120    0.110862    0.595595     0.007504
AU3205   AU        0.501903    0.075740    0.595889     0.007504
AU3206   AU        0.500087    0.109041    0.626582     0.007504
AU3207   AU        0.533730    0.110733    0.594943     0.007504
PD3208   PD        0.566723    0.107123    0.624484     0.005394
PD3209   PD        0.601324    0.108646    0.594192     0.005394
PD3210   PD        0.204627    0.178759    0.596489     0.005394
PD3211   PD        0.239444    0.138923    0.596411     0.005394
PD3212   PD        0.236472    0.178324    0.624646     0.005394
PD3213   PD        0.269518    0.105953    0.655643     0.005394
AU3214   AU        0.270767    0.178608    0.592479     0.007504
AU3215   AU        0.303244    0.144263    0.595376     0.007504
AU3216   AU        0.300765    0.178237    0.624005     0.007504
AU3217   AU        0.337338    0.145137    0.626133     0.007504
PD3218   PD        0.334649    0.178573    0.595882     0.005394
AU3219   AU        0.368282    0.144436    0.595595     0.007504
AU3220   AU        0.371402    0.178362    0.625257     0.007504
AU3221   AU        0.402305    0.144161    0.625649     0.007504
AU3222   AU        0.404164    0.180988    0.595668     0.007504
PD3223   PD        0.434533    0.146004    0.595702     0.005394
AU3224   AU        0.434652    0.180426    0.627161     0.007504
PD3225   PD        0.468398    0.145209    0.625787     0.005394
AU3226   AU        0.468325    0.178178    0.595484     0.007504
AU3227   AU        0.501435    0.144314    0.594364     0.007504
PD3228   PD        0.498959    0.179643    0.627781     0.005394
PD3229   PD        0.534047    0.143865    0.625882     0.005394
AU3230   AU        0.535705    0.178360    0.595380     0.007504
AU3231   AU        0.567204    0.143366    0.595574     0.007504
AU3232   AU        0.567422    0.177887    0.625855     0.007504
AU3233   AU        0.600367    0.143495    0.624799     0.007504
AU3234   AU        0.601101    0.178919    0.594593     0.007504
PD3235   PD        0.633443    0.145763    0.595290     0.005394
PD3236   PD        0.635191    0.179753    0.625764     0.005394
PD3237   PD        0.665576    0.179663    0.593385     0.005394
AU3238   AU        0.136893    0.248862    0.592300     0.007504
AU3239   AU        0.169282    0.213998    0.594261     0.007504
PD3240   PD        0.170174    0.248763    0.623606     0.005394
AU3241   AU        0.204587    0.215824    0.626912     0.007504
PD3242   PD        0.201684    0.249756    0.593577     0.005394
PD3243   PD        0.235998    0.213547    0.595324     0.005394
AU3244   AU        0.234524    0.251792    0.625165     0.007504
AU3245   AU        0.269654    0.214671    0.623916     0.007504
AU3246   AU        0.267574    0.252184    0.594247     0.007504
AU3247   AU        0.302259    0.215245    0.592728     0.007504
PD3248   PD        0.299554    0.248623    0.626309     0.005394
AU3249   AU        0.335200    0.214748    0.626737     0.007504
AU3250   AU        0.336358    0.250379    0.596001     0.007504
AU3251   AU        0.369820    0.213789    0.594810     0.007504
PD3252   PD        0.370607    0.247739    0.625847     0.005394
PD3253   PD        0.402040    0.213951    0.627519     0.005394
PD3254   PD        0.402892    0.250697    0.596064     0.005394
AU3255   AU        0.437885    0.215548    0.594553     0.007504
AU3256   AU        0.435612    0.248658    0.625847     0.007504
AU3257   AU        0.470058    0.214589    0.626746     0.007504
AU3258   AU        0.469205    0.250587    0.594672     0.007504
PD3259   PD        0.501922    0.211996    0.594662     0.005394
AU3260   AU        0.503585    0.249192    0.624227     0.007504
AU3261   AU        0.535210    0.214697    0.626529     0.007504
PD3262   PD        0.535948    0.251679    0.594605     0.005394
AU3263   AU        0.567011    0.213669    0.595418     0.007504
AU3264   AU        0.568830    0.250498    0.626085     0.007504
PD3265   PD        0.599875    0.214582    0.625750     0.005394
PD3266   PD        0.599915    0.249562    0.596250     0.005394
PD3267   PD        0.633123    0.215749    0.594073     0.005394
AU3268   AU        0.635586    0.249298    0.624318     0.007504
PD3269   PD        0.668086    0.214508    0.624936     0.005394
AU3270   AU        0.668181    0.249197    0.594159     0.007504
AU3271   AU        0.701361    0.214756    0.593373     0.007504
AU3272   AU        0.702304    0.246828    0.625691     0.007504
AU3273   AU        0.734790    0.251440    0.596478     0.007504
PD3274   PD        0.136876    0.283455    0.624608     0.005394
AU3275   AU        0.136449    0.321119    0.593924     0.007504
AU3276   AU        0.170250    0.284716    0.594419     0.007504
AU3277   AU        0.168483    0.320433    0.624700     0.007504
AU3278   AU        0.201338    0.286851    0.625180     0.007504
PD3279   PD        0.202369    0.323123    0.593569     0.005394
PD3280   PD        0.233643    0.285334    0.592365     0.005394
AU3281   AU        0.235420    0.320065    0.624685     0.007504
PD3282   PD        0.269828    0.286620    0.628225     0.005394
AU3283   AU        0.268463    0.319157    0.594105     0.007504
AU3284   AU        0.300842    0.283839    0.593428     0.007504
AU3285   AU        0.302389    0.319230    0.624825     0.007504
PD3286   PD        0.334649    0.285719    0.627397     0.005394
PD3287   PD        0.335324    0.319240    0.594149     0.005394
PD3288   PD        0.367603    0.283806    0.597679     0.005394
PD3289   PD        0.368573    0.318904    0.628574     0.005394
PD3290   PD        0.403325    0.285653    0.626553     0.005394
AU3291   AU        0.402184    0.320169    0.594466     0.007504
AU3292   AU        0.436270    0.285341    0.596358     0.007504
PD3293   PD        0.434252    0.319123    0.626377     0.005394
AU3294   AU        0.469080    0.284556    0.625013     0.007504
PD3295   PD        0.470610    0.319832    0.595382     0.005394
PD3296   PD        0.503181    0.285814    0.595554     0.005394
PD3297   PD        0.502715    0.322015    0.627962     0.005394
PD3298   PD        0.536691    0.285163    0.626925     0.005394
AU3299   AU        0.533577    0.322103    0.595601     0.007504
PD3300   PD        0.567947    0.285870    0.595217     0.005394
AU3301   AU        0.568388    0.320654    0.625422     0.007504
PD3302   PD        0.602331    0.284513    0.627524     0.005394
PD3303   PD        0.603390    0.322670    0.594195     0.005394
AU3304   AU        0.634301    0.283552    0.595253     0.007504
AU3305   AU        0.635223    0.320518    0.626481     0.007504
AU3306   AU        0.667942    0.283486    0.626752     0.007504
PD3307   PD        0.669196    0.320954    0.595579     0.005394
AU3308   AU        0.700615    0.284406    0.596330     0.007504
AU3309   AU        0.700270    0.320873    0.624976     0.007504
PD3310   PD        0.764809    0.247073    0.627955     0.005394
PD3311   PD        0.730742    0.318531    0.594984     0.005394
PD3312   PD        0.105184    0.353846    0.594649     0.005394
PD3313   PD        0.103363    0.394481    0.626665     0.005394
PD3314   PD        0.134339    0.355483    0.624121     0.005394
PD3315   PD        0.137860    0.392657    0.594411     0.005394
AU3316   AU        0.170029    0.359622    0.595962     0.007504
PD3317   PD        0.168802    0.395542    0.624547     0.005394
PD3318   PD        0.201003    0.359910    0.626691     0.005394
PD3319   PD        0.201633    0.392941    0.592428     0.005394
AU3320   AU        0.236823    0.356832    0.594260     0.007504
PD3321   PD        0.234216    0.393089    0.624434     0.005394
AU3322   AU        0.268187    0.357124    0.624040     0.007504
PD3323   PD        0.267580    0.394314    0.595610     0.005394
AU3324   AU        0.301818    0.358109    0.593957     0.007504
AU3325   AU        0.302434    0.391686    0.625496     0.007504
AU3326   AU        0.335536    0.355573    0.625018     0.007504
AU3327   AU        0.333583    0.392451    0.594136     0.007504
AU3328   AU        0.369288    0.355360    0.594866     0.007504
AU3329   AU        0.367961    0.391973    0.625533     0.007504
AU3330   AU        0.400587    0.355054    0.624927     0.007504
PD3331   PD        0.401857    0.393157    0.593910     0.005394
AU3332   AU        0.437191    0.356177    0.595109     0.007504
AU3333   AU        0.434878    0.392292    0.626375     0.007504
AU3334   AU        0.466811    0.356591    0.626369     0.007504
AU3335   AU        0.469101    0.393347    0.594753     0.007504
PD3336   PD        0.502245    0.356814    0.593892     0.005394
AU3337   AU        0.501365    0.390818    0.625345     0.007504
PD3338   PD        0.536028    0.355897    0.626913     0.005394
PD3339   PD        0.535179    0.392572    0.596432     0.005394
AU3340   AU        0.568537    0.357010    0.596730     0.007504
PD3341   PD        0.568883    0.388959    0.626761     0.005394
AU3342   AU        0.602744    0.356005    0.626739     0.007504
AU3343   AU        0.600968    0.392388    0.595144     0.007504
AU3344   AU        0.635830    0.355528    0.594683     0.007504
PD3345   PD        0.634693    0.391927    0.624537     0.005394
AU3346   AU        0.667354    0.356488    0.626378     0.007504
AU3347   AU        0.667687    0.391150    0.595449     0.007504
PD3348   PD        0.700437    0.355541    0.597118     0.005394
PD3349   PD        0.698883    0.391889    0.627184     0.005394
PD3350   PD        0.732165    0.356827    0.627249     0.005394
PD3351   PD        0.733002    0.393602    0.596596     0.005394
PD3352   PD        0.835262    0.332215    0.627326     0.005394
PD3353   PD        0.824282    0.376135    0.610694     0.005394
PD3354   PD        0.106443    0.428376    0.594546     0.005394
PD3355   PD        0.103786    0.464581    0.626074     0.005394
AU3356   AU        0.135667    0.429787    0.626544     0.007504
AU3357   AU        0.137201    0.464832    0.593527     0.007504
AU3358   AU        0.168275    0.428236    0.594453     0.007504
AU3359   AU        0.169128    0.464395    0.625241     0.007504
AU3360   AU        0.200651    0.427534    0.625294     0.007504
AU3361   AU        0.203278    0.462258    0.593391     0.007504
AU3362   AU        0.236108    0.428609    0.595930     0.007504
AU3363   AU        0.235887    0.464107    0.627039     0.007504
AU3364   AU        0.269695    0.426001    0.625932     0.007504
AU3365   AU        0.268424    0.464582    0.595546     0.007504
AU3366   AU        0.301260    0.427510    0.596434     0.007504
PD3367   PD        0.300342    0.463598    0.626979     0.005394
AU3368   AU        0.334276    0.428442    0.626359     0.007504
AU3369   AU        0.335024    0.463641    0.595709     0.007504
AU3370   AU        0.366329    0.426538    0.594018     0.007504
PD3371   PD        0.368171    0.466279    0.625917     0.005394
AU3372   AU        0.400469    0.429369    0.625447     0.007504
PD3373   PD        0.400756    0.463045    0.594088     0.005394
AU3374   AU        0.437156    0.428363    0.594288     0.007504
PD3375   PD        0.436175    0.463836    0.627546     0.005394
AU3376   AU        0.465772    0.426662    0.626110     0.007504
AU3377   AU        0.470409    0.463437    0.596563     0.007504
AU3378   AU        0.501936    0.427669    0.596509     0.007504
AU3379   AU        0.503203    0.465730    0.625615     0.007504
AU3380   AU        0.535713    0.427603    0.627536     0.007504
AU3381   AU        0.536796    0.464430    0.594495     0.007504
AU3382   AU        0.568849    0.428284    0.595310     0.007504
AU3383   AU        0.568886    0.464025    0.624996     0.007504
AU3384   AU        0.603533    0.425341    0.624709     0.007504
AU3385   AU        0.603038    0.463199    0.595304     0.007504
AU3386   AU        0.633262    0.428225    0.595081     0.007504
AU3387   AU        0.634656    0.463651    0.627056     0.007504
PD3388   PD        0.665933    0.428372    0.627493     0.005394
AU3389   AU        0.666484    0.463304    0.593316     0.007504
AU3390   AU        0.697977    0.427806    0.596557     0.007504
PD3391   PD        0.697100    0.465135    0.625638     0.005394
PD3392   PD        0.735079    0.432305    0.624348     0.005394
PD3393   PD        0.734351    0.468286    0.594584     0.005394
PD3394   PD        0.767487    0.427548    0.595560     0.005394
PD3395   PD        0.837634    0.500866    0.651246     0.005394
AU3396   AU        0.103147    0.497525    0.594471     0.007504
PD3397   PD        0.137073    0.497923    0.623607     0.005394
AU3398   AU        0.137453    0.533661    0.592178     0.007504
AU3399   AU        0.169760    0.500718    0.592382     0.007504
AU3400   AU        0.168581    0.534869    0.624609     0.007504
PD3401   PD        0.201098    0.498933    0.623913     0.005394
AU3402   AU        0.200864    0.534468    0.593923     0.007504
PD3403   PD        0.235362    0.499253    0.594715     0.005394
AU3404   AU        0.233713    0.536087    0.625277     0.007504
PD3405   PD        0.271577    0.501346    0.626306     0.005394
AU3406   AU        0.267830    0.533008    0.595206     0.007504
PD3407   PD        0.302792    0.498447    0.593263     0.005394
PD3408   PD        0.301532    0.536180    0.624690     0.005394
PD3409   PD        0.332730    0.500731    0.626282     0.005394
AU3410   AU        0.334562    0.533204    0.592699     0.007504
AU3411   AU        0.367619    0.497080    0.594870     0.007504
PD3412   PD        0.367724    0.532719    0.626800     0.005394
AU3413   AU        0.403726    0.499423    0.626397     0.007504
AU3414   AU        0.404187    0.534754    0.594779     0.007504
PD3415   PD        0.438690    0.497328    0.596407     0.005394
AU3416   AU        0.438786    0.533322    0.627218     0.007504
PD3417   PD        0.469997    0.497758    0.625854     0.005394
PD3418   PD        0.469285    0.536212    0.593779     0.005394
AU3419   AU        0.502815    0.499591    0.593635     0.007504
AU3420   AU        0.502567    0.534357    0.624639     0.007504
AU3421   AU        0.537068    0.500334    0.625095     0.007504
AU3422   AU        0.535763    0.536347    0.594416     0.007504
AU3423   AU        0.568859    0.499755    0.594194     0.007504
AU3424   AU        0.568548    0.535151    0.626473     0.007504
PD3425   PD        0.600394    0.496761    0.627418     0.005394
AU3426   AU        0.603982    0.534110    0.595617     0.007504
AU3427   AU        0.635484    0.500925    0.594886     0.007504
AU3428   AU        0.634789    0.534099    0.625909     0.007504
AU3429   AU        0.667600    0.498582    0.626413     0.007504
AU3430   AU        0.667121    0.535719    0.595058     0.007504
PD3431   PD        0.697947    0.497234    0.594926     0.005394
AU3432   AU        0.701056    0.534126    0.625337     0.007504
PD3433   PD        0.733945    0.498024    0.622547     0.005394
PD3434   PD        0.729733    0.535387    0.593447     0.005394
PD3435   PD        0.766371    0.500485    0.594686     0.005394
PD3436   PD        0.138661    0.570497    0.624475     0.005394
PD3437   PD        0.135863    0.604231    0.591561     0.005394
AU3438   AU        0.170452    0.571395    0.594824     0.007504
PD3439   PD        0.166899    0.608378    0.625284     0.005394
AU3440   AU        0.201949    0.570394    0.626666     0.007504
AU3441   AU        0.200927    0.608361    0.596060     0.007504
PD3442   PD        0.233554    0.571629    0.594565     0.005394
AU3443   AU        0.232911    0.604931    0.626375     0.007504
PD3444   PD        0.269905    0.570261    0.624106     0.005394
PD3445   PD        0.269191    0.607338    0.594926     0.005394
PD3446   PD        0.301907    0.569529    0.596457     0.005394
AU3447   AU        0.302512    0.605035    0.627017     0.007504
PD3448   PD        0.334914    0.568750    0.626224     0.005394
PD3449   PD        0.337819    0.604404    0.595656     0.005394
AU3450   AU        0.368640    0.569486    0.595216     0.007504
PD3451   PD        0.370449    0.607319    0.627265     0.005394
AU3452   AU        0.403778    0.567850    0.625278     0.007504
PD3453   PD        0.403226    0.605404    0.594846     0.005394
PD3454   PD        0.436729    0.570575    0.593253     0.005394
PD3455   PD        0.435808    0.605542    0.625999     0.005394
PD3456   PD        0.468870    0.569794    0.624766     0.005394
PD3457   PD        0.468621    0.609613    0.595203     0.005394
AU3458   AU        0.501855    0.570501    0.595421     0.007504
PD3459   PD        0.502518    0.603243    0.626477     0.005394
AU3460   AU        0.536089    0.569343    0.628206     0.007504
AU3461   AU        0.534527    0.603976    0.596011     0.007504
AU3462   AU        0.570840    0.569761    0.596592     0.007504
AU3463   AU        0.570139    0.604620    0.625939     0.007504
PD3464   PD        0.601409    0.567485    0.627176     0.005394
AU3465   AU        0.601932    0.605027    0.595747     0.007504
AU3466   AU        0.634471    0.570579    0.595958     0.007504
PD3467   PD        0.636528    0.605184    0.627508     0.005394
AU3468   AU        0.666991    0.569316    0.625710     0.007504
AU3469   AU        0.668065    0.605046    0.594861     0.007504
AU3470   AU        0.700519    0.570186    0.596519     0.007504
AU3471   AU        0.700064    0.605178    0.625105     0.007504
PD3472   PD        0.733019    0.570093    0.626207     0.005394
AU3473   AU        0.735906    0.607033    0.596133     0.007504
PD3474   PD        0.167075    0.640783    0.593056     0.005394
PD3475   PD        0.170054    0.676970    0.625028     0.005394
PD3476   PD        0.203513    0.676749    0.592710     0.005394
PD3477   PD        0.233626    0.639584    0.595288     0.005394
PD3478   PD        0.237308    0.676437    0.622761     0.005394
PD3479   PD        0.268435    0.642511    0.626523     0.005394
PD3480   PD        0.270039    0.678002    0.594740     0.005394
AU3481   AU        0.302281    0.640803    0.597019     0.007504
AU3482   AU        0.302910    0.677357    0.624699     0.007504
AU3483   AU        0.336209    0.641102    0.626011     0.007504
AU3484   AU        0.336394    0.677742    0.595352     0.007504
PD3485   PD        0.369124    0.641630    0.595530     0.005394
AU3486   AU        0.366966    0.677325    0.627377     0.007504
PD3487   PD        0.403343    0.639820    0.627012     0.005394
PD3488   PD        0.402733    0.676076    0.596782     0.005394
PD3489   PD        0.436352    0.644596    0.593797     0.005394
PD3490   PD        0.435518    0.677928    0.624113     0.005394
PD3491   PD        0.472543    0.641400    0.623815     0.005394
AU3492   AU        0.469995    0.677069    0.594972     0.007504
AU3493   AU        0.503461    0.641919    0.594127     0.007504
AU3494   AU        0.502748    0.676644    0.624372     0.007504
PD3495   PD        0.535933    0.639863    0.624522     0.005394
PD3496   PD        0.537058    0.676289    0.595290     0.005394
AU3497   AU        0.569521    0.642035    0.597118     0.007504
AU3498   AU        0.570815    0.675960    0.626266     0.007504
PD3499   PD        0.603817    0.640391    0.624991     0.005394
PD3500   PD        0.602713    0.677933    0.593824     0.005394
AU3501   AU        0.634582    0.641590    0.593785     0.007504
PD3502   PD        0.634505    0.679352    0.624859     0.005394
PD3503   PD        0.668322    0.642025    0.624571     0.005394
AU3504   AU        0.666369    0.677374    0.595620     0.007504
AU3505   AU        0.701788    0.640354    0.595637     0.007504
PD3506   PD        0.198355    0.748511    0.592776     0.005394
PD3507   PD        0.268169    0.712383    0.628661     0.005394
PD3508   PD        0.241409    0.748466    0.629182     0.005394
AU3509   AU        0.302516    0.712639    0.595598     0.007504
PD3510   PD        0.302841    0.749309    0.622635     0.005394
PD3511   PD        0.334443    0.714675    0.624122     0.005394
PD3512   PD        0.304879    0.784135    0.595801     0.005394
AU3513   AU        0.368963    0.713204    0.594539     0.007504
AU3514   AU        0.365355    0.748714    0.625247     0.007504
AU3515   AU        0.401332    0.714102    0.623922     0.007504
AU3516   AU        0.402777    0.747030    0.595668     0.007504
AU3517   AU        0.434294    0.711472    0.594115     0.007504
AU3518   AU        0.436576    0.746530    0.624972     0.007504
AU3519   AU        0.468707    0.710689    0.625769     0.007504
PD3520   PD        0.468796    0.745321    0.593827     0.005394
AU3521   AU        0.502380    0.710642    0.595500     0.007504
PD3522   PD        0.500465    0.744556    0.624640     0.005394
AU3523   AU        0.536477    0.711869    0.625510     0.007504
AU3524   AU        0.537205    0.747483    0.596420     0.007504
AU3525   AU        0.568394    0.710101    0.594285     0.007504
PD3526   PD        0.566944    0.750773    0.627106     0.005394
PD3527   PD        0.599841    0.713994    0.626612     0.005394
AU3528   AU        0.600100    0.747322    0.594807     0.007504
PD3529   PD        0.635584    0.714146    0.596121     0.005394
PD3530   PD        0.376911    0.786301    0.599378     0.005394
PD3531   PD        0.402238    0.780358    0.627882     0.005394
PD3532   PD        0.435593    0.782242    0.597761     0.005394
PD3533   PD        0.443149    0.819134    0.625889     0.005394
PD3534   PD        0.502137    0.779870    0.594323     0.005394
AU3535   AU        0.403080    0.108441    0.657802     0.007504
AU3536   AU        0.469407    0.108126    0.657515     0.007504
PD3537   PD        0.269004    0.176044    0.654423     0.005394
PD3538   PD        0.304082    0.144870    0.656137     0.005394
PD3539   PD        0.300658    0.217435    0.718621     0.005394
AU3540   AU        0.335852    0.179899    0.656029     0.007504
PD3541   PD        0.370734    0.145681    0.655492     0.005394
AU3542   AU        0.370515    0.180596    0.688415     0.007504
AU3543   AU        0.402909    0.143626    0.687575     0.007504
AU3544   AU        0.403291    0.178348    0.657183     0.007504
AU3545   AU        0.437042    0.144556    0.657175     0.007504
AU3546   AU        0.436173    0.179573    0.688829     0.007504
PD3547   PD        0.468416    0.143918    0.689281     0.005394
AU3548   AU        0.467375    0.179995    0.658899     0.007504
PD3549   PD        0.533477    0.142420    0.690459     0.005394
AU3550   AU        0.500751    0.178391    0.687356     0.007504
AU3551   AU        0.533535    0.177418    0.655691     0.007504
PD3552   PD        0.566111    0.144542    0.656786     0.005394
PD3553   PD        0.566626    0.176633    0.686728     0.005394
PD3554   PD        0.601493    0.177751    0.655997     0.005394
PD3555   PD        0.202398    0.211452    0.683420     0.005394
AU3556   AU        0.240333    0.214966    0.659325     0.007504
PD3557   PD        0.231342    0.247133    0.688622     0.005394
PD3558   PD        0.236029    0.173964    0.684873     0.005394
PD3559   PD        0.265722    0.249106    0.656763     0.005394
PD3560   PD        0.301170    0.215178    0.658420     0.005394
PD3561   PD        0.301212    0.251251    0.684741     0.005394
AU3562   AU        0.335952    0.213213    0.686140     0.007504
PD3563   PD        0.336287    0.251314    0.655571     0.005394
AU3564   AU        0.370201    0.215659    0.656632     0.007504
AU3565   AU        0.369987    0.249695    0.687261     0.007504
PD3566   PD        0.401727    0.214777    0.687644     0.005394
AU3567   AU        0.403631    0.250385    0.656885     0.007504
AU3568   AU        0.436441    0.215147    0.655900     0.007504
PD3569   PD        0.438128    0.250434    0.687769     0.005394
PD3570   PD        0.469367    0.214726    0.688236     0.005394
AU3571   AU        0.469480    0.249638    0.655910     0.007504
AU3572   AU        0.502303    0.214761    0.656577     0.007504
PD3573   PD        0.504034    0.250901    0.687474     0.005394
PD3574   PD        0.533112    0.212864    0.686313     0.005394
AU3575   AU        0.535196    0.250937    0.656989     0.007504
AU3576   AU        0.568247    0.213042    0.656640     0.007504
PD3577   PD        0.567195    0.249951    0.686357     0.005394
AU3578   AU        0.602463    0.214356    0.687577     0.007504
AU3579   AU        0.603619    0.247778    0.655586     0.007504
AU3580   AU        0.634112    0.214354    0.657421     0.007504
AU3581   AU        0.633282    0.251200    0.687273     0.007504
PD3582   PD        0.664387    0.246962    0.657931     0.005394
AU3583   AU        0.168917    0.288303    0.655952     0.007504
PD3584   PD        0.233187    0.286862    0.716497     0.005394
AU3585   AU        0.202206    0.321328    0.654792     0.007504
PD3586   PD        0.235260    0.286952    0.657844     0.005394
PD3587   PD        0.234337    0.321193    0.684539     0.005394
PD3588   PD        0.270382    0.289632    0.687363     0.005394
PD3589   PD        0.267818    0.325047    0.655601     0.005394
PD3590   PD        0.302416    0.289633    0.657210     0.005394
AU3591   AU        0.304115    0.322609    0.688151     0.007504
AU3592   AU        0.337011    0.285183    0.687576     0.007504
PD3593   PD        0.336258    0.320796    0.658394     0.005394
PD3594   PD        0.367022    0.287883    0.659823     0.005394
AU3595   AU        0.369462    0.319037    0.689286     0.007504
AU3596   AU        0.401746    0.285785    0.688076     0.007504
PD3597   PD        0.402131    0.321054    0.657156     0.005394
AU3598   AU        0.436073    0.284203    0.656048     0.007504
AU3599   AU        0.437590    0.318740    0.688686     0.007504
PD3600   PD        0.469959    0.286736    0.687475     0.005394
AU3601   AU        0.467034    0.320084    0.655226     0.007504
AU3602   AU        0.502262    0.284776    0.657062     0.007504
PD3603   PD        0.501730    0.318659    0.686758     0.005394
AU3604   AU        0.535042    0.285726    0.690181     0.007504
PD3605   PD        0.535560    0.320932    0.657153     0.005394
AU3606   AU        0.567336    0.285733    0.657064     0.007504
PD3607   PD        0.568782    0.320187    0.687687     0.005394
AU3608   AU        0.601109    0.284176    0.686291     0.007504
PD3609   PD        0.602410    0.319160    0.657140     0.005394
AU3610   AU        0.634503    0.282759    0.654890     0.007504
AU3611   AU        0.633658    0.317785    0.688548     0.007504
PD3612   PD        0.669791    0.286735    0.687567     0.005394
AU3613   AU        0.667992    0.318779    0.656184     0.007504
PD3614   PD        0.704018    0.285220    0.655918     0.005394
PD3615   PD        0.135679    0.392356    0.656538     0.005394
AU3616   AU        0.167717    0.355483    0.657376     0.007504
PD3617   PD        0.170010    0.388904    0.687217     0.005394
AU3618   AU        0.203280    0.356742    0.686386     0.007504
PD3619   PD        0.199996    0.392391    0.656570     0.005394
PD3620   PD        0.233283    0.359454    0.654298     0.005394
AU3621   AU        0.235937    0.393732    0.685891     0.007504
PD3622   PD        0.266361    0.355377    0.687265     0.005394
AU3623   AU        0.268772    0.390504    0.654936     0.007504
PD3624   PD        0.304201    0.354484    0.657523     0.005394
AU3625   AU        0.300750    0.391249    0.685710     0.007504
AU3626   AU        0.337110    0.354248    0.689313     0.007504
PD3627   PD        0.336925    0.392778    0.657122     0.005394
AU3628   AU        0.368118    0.353948    0.658502     0.007504
PD3629   PD        0.368885    0.390907    0.686403     0.005394
AU3630   AU        0.403346    0.356719    0.689011     0.007504
AU3631   AU        0.402041    0.390888    0.655896     0.007504
PD3632   PD        0.434914    0.354958    0.655583     0.005394
AU3633   AU        0.436537    0.390148    0.687449     0.007504
PD3634   PD        0.468239    0.354034    0.686950     0.005394
AU3635   AU        0.467738    0.390597    0.655815     0.007504
PD3636   PD        0.501188    0.356096    0.659536     0.005394
PD3637   PD        0.499323    0.392416    0.688999     0.005394
AU3638   AU        0.534530    0.355970    0.688172     0.007504
PD3639   PD        0.535786    0.393176    0.658697     0.005394
PD3640   PD        0.569963    0.352998    0.657291     0.005394
AU3641   AU        0.570339    0.391339    0.687671     0.007504
AU3642   AU        0.600151    0.355712    0.688379     0.007504
PD3643   PD        0.603591    0.393296    0.658282     0.005394
PD3644   PD        0.635007    0.355350    0.658056     0.005394
AU3645   AU        0.633487    0.391194    0.687320     0.007504
PD3646   PD        0.668018    0.354643    0.688390     0.005394
AU3647   AU        0.666954    0.393599    0.657433     0.007504
AU3648   AU        0.699742    0.355629    0.658985     0.007504
PD3649   PD        0.698175    0.393043    0.688789     0.005394
PD3650   PD        0.732455    0.393893    0.657021     0.005394
PD3651   PD        0.135096    0.500939    0.686543     0.005394
AU3652   AU        0.166495    0.428951    0.656259     0.007504
PD3653   PD        0.167935    0.459687    0.687496     0.005394
PD3654   PD        0.201904    0.425406    0.684108     0.005394
AU3655   AU        0.202066    0.463267    0.656732     0.007504
PD3656   PD        0.234813    0.426762    0.654334     0.005394
AU3657   AU        0.233149    0.460578    0.688200     0.007504
AU3658   AU        0.267637    0.427422    0.686539     0.007504
PD3659   PD        0.269171    0.461922    0.657178     0.005394
AU3660   AU        0.301681    0.426965    0.657026     0.007504
AU3661   AU        0.302213    0.464047    0.688946     0.007504
AU3662   AU        0.335428    0.427023    0.687360     0.007504
AU3663   AU        0.332762    0.465580    0.655609     0.007504
PD3664   PD        0.369828    0.429180    0.656602     0.005394
AU3665   AU        0.366717    0.464149    0.686627     0.007504
PD3666   PD        0.401436    0.425310    0.690435     0.005394
AU3667   AU        0.401466    0.462473    0.656708     0.007504
AU3668   AU        0.434232    0.425461    0.657753     0.007504
PD3669   PD        0.434620    0.460998    0.687169     0.005394
AU3670   AU        0.465536    0.428197    0.689812     0.007504
PD3671   PD        0.470685    0.463849    0.657962     0.005394
AU3672   AU        0.503201    0.427829    0.657490     0.007504
PD3673   PD        0.502894    0.462726    0.686187     0.005394
AU3674   AU        0.536186    0.426942    0.689127     0.007504
AU3675   AU        0.537432    0.463094    0.657262     0.007504
PD3676   PD        0.567838    0.426204    0.657118     0.005394
AU3677   AU        0.569042    0.461784    0.688740     0.007504
AU3678   AU        0.600373    0.427012    0.689691     0.007504
AU3679   AU        0.599987    0.461949    0.656954     0.007504
AU3680   AU        0.633171    0.429752    0.657205     0.007504
AU3681   AU        0.634327    0.464255    0.687481     0.007504
PD3682   PD        0.667294    0.426900    0.687999     0.005394
AU3683   AU        0.666876    0.464743    0.657826     0.007504
PD3684   PD        0.733157    0.430318    0.689076     0.005394
PD3685   PD        0.725881    0.506363    0.692275     0.005394
PD3686   PD        0.763831    0.427619    0.656273     0.005394
PD3687   PD        0.168405    0.497967    0.654351     0.005394
PD3688   PD        0.172606    0.501862    0.724486     0.005394
PD3689   PD        0.203988    0.530470    0.656126     0.005394
PD3690   PD        0.236168    0.494239    0.656158     0.005394
AU3691   AU        0.235637    0.532467    0.687080     0.007504
AU3692   AU        0.269230    0.497378    0.687821     0.007504
PD3693   PD        0.269549    0.533333    0.654486     0.005394
PD3694   PD        0.301821    0.498255    0.658487     0.005394
AU3695   AU        0.303078    0.533432    0.687043     0.007504
PD3696   PD        0.333922    0.499049    0.686719     0.005394
PD3697   PD        0.334865    0.536680    0.656472     0.005394
AU3698   AU        0.368774    0.500849    0.657520     0.007504
PD3699   PD        0.367271    0.536072    0.687220     0.005394
PD3700   PD        0.399285    0.501050    0.688143     0.005394
PD3701   PD        0.402625    0.534674    0.654998     0.005394
AU3702   AU        0.435599    0.497590    0.656988     0.007504
AU3703   AU        0.438377    0.535716    0.686461     0.007504
PD3704   PD        0.472907    0.498381    0.687986     0.005394
PD3705   PD        0.471096    0.532544    0.657525     0.005394
PD3706   PD        0.502800    0.498878    0.657662     0.005394
AU3707   AU        0.504309    0.534739    0.687286     0.007504
AU3708   AU        0.536042    0.499037    0.689446     0.007504
PD3709   PD        0.535160    0.534124    0.657036     0.005394
AU3710   AU        0.568315    0.500116    0.658077     0.007504
AU3711   AU        0.569586    0.534409    0.688793     0.007504
PD3712   PD        0.600956    0.498017    0.686115     0.005394
AU3713   AU        0.600904    0.535841    0.657222     0.007504
PD3714   PD        0.632922    0.496132    0.658135     0.005394
AU3715   AU        0.634770    0.535287    0.687625     0.007504
PD3716   PD        0.665415    0.501947    0.688333     0.005394
PD3717   PD        0.665870    0.534227    0.657996     0.005394
PD3718   PD        0.701295    0.497285    0.657420     0.005394
PD3719   PD        0.129265    0.569016    0.683611     0.005394
PD3720   PD        0.236270    0.569082    0.715401     0.005394
PD3721   PD        0.198364    0.604766    0.660207     0.005394
AU3722   AU        0.237043    0.568650    0.655414     0.007504
PD3723   PD        0.236426    0.605898    0.686755     0.005394
AU3724   AU        0.268213    0.569573    0.686305     0.007504
AU3725   AU        0.268960    0.604619    0.654906     0.007504
PD3726   PD        0.303062    0.569759    0.657249     0.005394
AU3727   AU        0.303204    0.607802    0.690323     0.007504
AU3728   AU        0.333466    0.571110    0.689168     0.007504
PD3729   PD        0.332999    0.606081    0.656028     0.005394
PD3730   PD        0.366252    0.570246    0.658649     0.005394
PD3731   PD        0.369597    0.607993    0.686571     0.005394
PD3732   PD        0.401409    0.568006    0.686244     0.005394
PD3733   PD        0.400293    0.605794    0.659517     0.005394
PD3734   PD        0.438448    0.570254    0.655161     0.005394
PD3735   PD        0.436119    0.608099    0.688877     0.005394
AU3736   AU        0.469928    0.572459    0.687850     0.007504
PD3737   PD        0.468444    0.606816    0.654922     0.005394
PD3738   PD        0.501825    0.570159    0.657502     0.005394
AU3739   AU        0.503957    0.606452    0.687959     0.007504
AU3740   AU        0.534902    0.571465    0.687275     0.007504
AU3741   AU        0.537342    0.606932    0.657090     0.007504
AU3742   AU        0.568260    0.569503    0.656940     0.007504
AU3743   AU        0.569774    0.605469    0.688772     0.007504
AU3744   AU        0.601406    0.568869    0.688761     0.007504
AU3745   AU        0.599743    0.603872    0.657361     0.007504
PD3746   PD        0.632683    0.571202    0.657131     0.005394
PD3747   PD        0.633175    0.604546    0.688037     0.005394
PD3748   PD        0.666431    0.572619    0.689039     0.005394
PD3749   PD        0.668423    0.605436    0.656202     0.005394
PD3750   PD        0.701439    0.569653    0.656336     0.005394
PD3751   PD        0.237762    0.641146    0.657551     0.005394
PD3752   PD        0.266499    0.641460    0.685569     0.005394
AU3753   AU        0.268792    0.679305    0.659141     0.007504
PD3754   PD        0.301300    0.640207    0.658625     0.005394
PD3755   PD        0.267515    0.674671    0.721282     0.005394
AU3756   AU        0.336748    0.640062    0.687275     0.007504
PD3757   PD        0.336013    0.676930    0.657709     0.005394
PD3758   PD        0.370407    0.642623    0.659322     0.005394
PD3759   PD        0.370181    0.676450    0.690759     0.005394
PD3760   PD        0.403155    0.638723    0.689607     0.005394
AU3761   AU        0.403806    0.676594    0.655063     0.007504
PD3762   PD        0.434787    0.637790    0.653704     0.005394
AU3763   AU        0.435154    0.673068    0.685893     0.007504
AU3764   AU        0.468947    0.638304    0.685889     0.007504
PD3765   PD        0.467145    0.672404    0.654475     0.005394
PD3766   PD        0.502820    0.640508    0.654833     0.005394
AU3767   AU        0.498795    0.678071    0.686339     0.007504
PD3768   PD        0.536067    0.639065    0.687681     0.005394
PD3769   PD        0.531819    0.675900    0.655551     0.005394
AU3770   AU        0.567800    0.641880    0.656423     0.007504
PD3771   PD        0.608642    0.674560    0.717716     0.005394
PD3772   PD        0.601704    0.642642    0.686242     0.005394
PD3773   PD        0.601800    0.677677    0.658652     0.005394
AU3774   AU        0.633101    0.637758    0.654708     0.007504
PD3775   PD        0.306177    0.744493    0.692573     0.005394
PD3776   PD        0.366840    0.711345    0.658447     0.005394
PD3777   PD        0.405908    0.712154    0.687357     0.005394
AU3778   AU        0.401950    0.744582    0.656131     0.007504
PD3779   PD        0.435574    0.710765    0.655586     0.005394
PD3780   PD        0.464888    0.708683    0.691823     0.005394
PD3781   PD        0.473961    0.781953    0.691534     0.005394
PD3782   PD        0.500695    0.710358    0.654013     0.005394
PD3783   PD        0.569904    0.751315    0.687244     0.005394
AU3784   AU        0.402398    0.181171    0.718432     0.007504
PD3785   PD        0.428047    0.183671    0.770844     0.005394
PD3786   PD        0.264783    0.252811    0.719743     0.005394
AU3787   AU        0.333256    0.248440    0.715189     0.007504
AU3788   AU        0.368029    0.214966    0.719091     0.007504
PD3789   PD        0.363389    0.250191    0.747464     0.005394
AU3790   AU        0.402038    0.248971    0.718033     0.007504
PD3791   PD        0.439088    0.212475    0.719820     0.005394
PD3792   PD        0.438394    0.250859    0.750665     0.005394
AU3793   AU        0.467177    0.249863    0.719158     0.007504
PD3794   PD        0.500599    0.215814    0.715566     0.005394
PD3795   PD        0.465845    0.254126    0.783621     0.005394
PD3796   PD        0.534507    0.249602    0.718003     0.005394
PD3797   PD        0.606506    0.209984    0.749880     0.005394
AU3798   AU        0.271772    0.321639    0.720885     0.007504
AU3799   AU        0.302857    0.283578    0.718487     0.007504
PD3800   PD        0.303425    0.321928    0.752759     0.005394
PD3801   PD        0.302298    0.246504    0.808263     0.005394
AU3802   AU        0.334812    0.321640    0.720855     0.007504
AU3803   AU        0.367233    0.284254    0.719379     0.007504
AU3804   AU        0.369171    0.324093    0.748574     0.007504
PD3805   PD        0.400775    0.283647    0.748083     0.005394
PD3806   PD        0.400088    0.319062    0.719144     0.005394
AU3807   AU        0.434330    0.283385    0.718821     0.007504
PD3808   PD        0.436764    0.319862    0.748950     0.005394
AU3809   AU        0.468792    0.286065    0.748785     0.007504
PD3810   PD        0.468981    0.320991    0.719051     0.005394
AU3811   AU        0.501153    0.285280    0.718051     0.007504
PD3812   PD        0.503216    0.317416    0.748697     0.005394
AU3813   AU        0.534721    0.283484    0.747673     0.007504
AU3814   AU        0.534348    0.321014    0.718123     0.007504
PD3815   PD        0.569645    0.254216    0.747629     0.005394
PD3816   PD        0.566695    0.323194    0.750973     0.005394
AU3817   AU        0.600414    0.320144    0.718233     0.007504
AU3818   AU        0.203951    0.393580    0.718950     0.007504
PD3819   PD        0.238968    0.360166    0.719598     0.005394
PD3820   PD        0.236068    0.325189    0.749891     0.005394
PD3821   PD        0.269659    0.390566    0.718891     0.005394
PD3822   PD        0.301104    0.357710    0.719946     0.005394
PD3823   PD        0.297789    0.395650    0.750033     0.005394
AU3824   AU        0.335805    0.357859    0.751609     0.007504
AU3825   AU        0.332900    0.393905    0.717649     0.007504
PD3826   PD        0.370128    0.356440    0.717913     0.005394
AU3827   AU        0.367281    0.393310    0.748266     0.007504
AU3828   AU        0.402454    0.355338    0.747306     0.007504
AU3829   AU        0.401671    0.390926    0.719206     0.007504
AU3830   AU        0.435993    0.356340    0.719030     0.007504
PD3831   PD        0.436015    0.391669    0.750719     0.005394
PD3832   PD        0.471158    0.354572    0.749085     0.005394
PD3833   PD        0.467818    0.390831    0.720574     0.005394
AU3834   AU        0.502693    0.355344    0.718279     0.007504
AU3835   AU        0.501051    0.391104    0.748674     0.007504
AU3836   AU        0.533287    0.357217    0.751043     0.007504
PD3837   PD        0.533418    0.391047    0.717748     0.005394
AU3838   AU        0.569362    0.356792    0.717712     0.007504
AU3839   AU        0.563719    0.391021    0.749268     0.007504
PD3840   PD        0.600195    0.355313    0.748571     0.005394
AU3841   AU        0.601318    0.390569    0.720489     0.007504
PD3842   PD        0.634682    0.356725    0.720491     0.005394
PD3843   PD        0.668051    0.388885    0.718658     0.005394
PD3844   PD        0.201671    0.465652    0.719826     0.005394
PD3845   PD        0.237758    0.460544    0.751260     0.005394
PD3846   PD        0.267778    0.425389    0.747664     0.005394
AU3847   AU        0.267266    0.465503    0.719006     0.007504
AU3848   AU        0.300941    0.428456    0.716637     0.007504
PD3849   PD        0.301771    0.461733    0.747868     0.005394
PD3850   PD        0.333941    0.428251    0.747553     0.005394
AU3851   AU        0.333945    0.465056    0.716227     0.007504
AU3852   AU        0.366796    0.426977    0.717189     0.007504
AU3853   AU        0.365850    0.462793    0.746247     0.007504
AU3854   AU        0.399454    0.431392    0.750640     0.007504
PD3855   PD        0.399887    0.463498    0.716782     0.005394
PD3856   PD        0.432882    0.426336    0.719428     0.005394
PD3857   PD        0.435217    0.461352    0.746526     0.005394
AU3858   AU        0.467064    0.428247    0.748064     0.007504
PD3859   PD        0.470043    0.464917    0.719271     0.005394
AU3860   AU        0.500298    0.427970    0.718457     0.007504
AU3861   AU        0.501987    0.462853    0.747783     0.007504
AU3862   AU        0.532789    0.427795    0.748304     0.007504
PD3863   PD        0.535326    0.464084    0.719386     0.005394
AU3864   AU        0.567614    0.425700    0.718957     0.007504
AU3865   AU        0.568297    0.464256    0.750030     0.007504
AU3866   AU        0.599830    0.426983    0.748998     0.007504
AU3867   AU        0.601348    0.461231    0.719614     0.007504
AU3868   AU        0.634158    0.427340    0.718368     0.007504
PD3869   PD        0.668846    0.462920    0.719574     0.005394
PD3870   PD        0.234737    0.499808    0.718674     0.005394
PD3871   PD        0.267346    0.496788    0.750375     0.005394
AU3872   AU        0.269498    0.536490    0.717831     0.007504
AU3873   AU        0.300824    0.499472    0.717188     0.007504
PD3874   PD        0.300185    0.535078    0.750427     0.005394
AU3875   AU        0.333678    0.500366    0.750751     0.007504
PD3876   PD        0.334698    0.535710    0.717914     0.005394
PD3877   PD        0.368053    0.501715    0.717059     0.005394
PD3878   PD        0.374211    0.530966    0.747923     0.005394
PD3879   PD        0.402811    0.494387    0.746923     0.005394
AU3880   AU        0.404024    0.533710    0.720178     0.007504
PD3881   PD        0.435333    0.499637    0.716890     0.005394
AU3882   AU        0.438651    0.533674    0.750502     0.007504
PD3883   PD        0.468888    0.499508    0.748587     0.005394
AU3884   AU        0.471180    0.535516    0.718266     0.007504
PD3885   PD        0.503509    0.502545    0.718320     0.005394
PD3886   PD        0.501196    0.532216    0.748820     0.005394
PD3887   PD        0.534496    0.498884    0.749956     0.005394
AU3888   AU        0.536613    0.535435    0.717323     0.007504
PD3889   PD        0.571909    0.498469    0.718389     0.005394
PD3890   PD        0.570205    0.501049    0.781944     0.005394
PD3891   PD        0.604027    0.495776    0.751726     0.005394
PD3892   PD        0.600556    0.533688    0.718890     0.005394
PD3893   PD        0.631097    0.499284    0.716515     0.005394
PD3894   PD        0.265225    0.605674    0.719394     0.005394
PD3895   PD        0.302756    0.569115    0.720696     0.005394
PD3896   PD        0.335538    0.570264    0.750034     0.005394
PD3897   PD        0.336485    0.603641    0.719534     0.005394
AU3898   AU        0.368774    0.568712    0.718825     0.007504
PD3899   PD        0.369694    0.603913    0.749653     0.005394
PD3900   PD        0.402018    0.568551    0.747450     0.005394
PD3901   PD        0.401844    0.602030    0.717878     0.005394
AU3902   AU        0.436349    0.571074    0.719770     0.007504
PD3903   PD        0.431111    0.604488    0.749805     0.005394
PD3904   PD        0.505160    0.607641    0.750385     0.005394
AU3905   AU        0.469655    0.606882    0.720915     0.007504
AU3906   AU        0.505441    0.571336    0.720201     0.007504
PD3907   PD        0.499504    0.573376    0.782247     0.005394
PD3908   PD        0.536314    0.569496    0.749714     0.005394
AU3909   AU        0.536376    0.605409    0.719138     0.007504
AU3910   AU        0.568662    0.569881    0.717382     0.007504
PD3911   PD        0.601592    0.605713    0.718552     0.005394
AU3912   AU        0.367851    0.639695    0.719238     0.007504
PD3913   PD        0.402702    0.678502    0.717392     0.005394
PD3914   PD        0.405403    0.677594    0.758713     0.005394
PD3915   PD        0.507411    0.708538    0.719009     0.005394
AU3916   AU        0.503633    0.641953    0.716587     0.007504
AU3917   AU        0.401746    0.392607    0.777747     0.007504
PD3918   PD        0.389282    0.486173    0.887068     0.005394
PD3919   PD        0.435341    0.359085    0.780815     0.005394
PD3920   PD        0.366551    0.425603    0.780821     0.005394
PD3921   PD        0.433855    0.535986    0.814526     0.005394
AU3922   AU        0.433939    0.430265    0.781551     0.007504
PD3923   PD        0.465462    0.466274    0.781969     0.005394
PD3924   PD        0.498599    0.424632    0.779086     0.005394
PD3925   PD        0.438379    0.496548    0.781358     0.005394
