data_00001
_audit_creation_method   'DISCUS'

_data_chemical_name_common 'Cu.cell Pearson1985'

_cell_length_a             54.2220
_cell_length_b             54.2220
_cell_length_c             57.8368
_cell_angle_alpha     90.0000
_cell_angle_beta      90.0000
_cell_angle_gamma     90.0000

_symmetry_space_group_name_H-M   'P1              '

loop_
_atom_site_label
_atom_site_symbol
_atom_site_fract_x
_atom_site_fract_y
_atom_site_fract_z
_atom_site_u_iso_or_equiv
NI1   NI        0.381221    0.344866    0.010225     0.004307
NI2   NI        0.417440    0.310674    0.012272     0.004307
CU3   CU        0.452480    0.345258    0.009595     0.006663
NI4   NI        0.491721    0.310051    0.013459     0.004307
NI5   NI        0.524459    0.345624    0.014838     0.004307
NI6   NI        0.314271    0.413937    0.008795     0.004307
CU7   CU        0.348126    0.380257    0.013336     0.006663
NI8   NI        0.379112    0.413410    0.008796     0.004307
NI9   NI        0.419137    0.381968    0.008690     0.004307
NI10   NI        0.450884    0.415409    0.010015     0.004307
NI11   NI        0.482657    0.382735    0.008491     0.004307
NI12   NI        0.519110    0.418260    0.000625     0.004307
NI13   NI        0.561998    0.378461    0.017260     0.004307
CU14   CU        0.594006    0.412244    0.018031     0.006663
NI15   NI        0.311277    0.489421    0.011756     0.004307
NI16   NI        0.344867    0.449041    0.010353     0.004307
NI17   NI        0.380930    0.489378    0.009222     0.004307
CU18   CU        0.416522    0.452550    0.008012     0.006663
NI19   NI        0.451221    0.488966    0.008507     0.004307
NI20   NI        0.486762    0.455767    0.009257     0.004307
CU21   CU        0.521352    0.492602    0.008650     0.006663
NI22   NI        0.547458    0.457304    0.004045     0.004307
NI23   NI        0.581552    0.488988    0.001560     0.004307
NI24   NI        0.345539    0.521593    0.011925     0.004307
NI25   NI        0.380688    0.557730    0.011884     0.004307
NI26   NI        0.417358    0.523149    0.013240     0.004307
CU27   CU        0.454208    0.559671    0.011876     0.006663
CU28   CU        0.489737    0.525129    0.012170     0.006663
NI29   NI        0.523143    0.560015    0.011531     0.004307
CU30   CU        0.558181    0.524997    0.013733     0.006663
CU31   CU        0.419248    0.592059    0.010996     0.006663
NI32   NI        0.493494    0.595304    0.008786     0.004307
CU33   CU        0.312713    0.209368    0.069473     0.006663
CU34   CU        0.386176    0.207557    0.068710     0.006663
CU35   CU        0.420010    0.172716    0.071859     0.006663
NI36   NI        0.456620    0.206738    0.072065     0.004307
NI37   NI        0.492421    0.174301    0.071873     0.004307
NI38   NI        0.527415    0.207687    0.073135     0.004307
NI39   NI        0.595831    0.208102    0.072306     0.004307
NI40   NI        0.243925    0.274351    0.072851     0.004307
NI41   NI        0.279807    0.241179    0.071297     0.004307
NI42   NI        0.316088    0.275530    0.070807     0.004307
NI43   NI        0.349617    0.240860    0.068638     0.004307
NI44   NI        0.349590    0.274637    0.040947     0.004307
NI45   NI        0.382947    0.241440    0.040826     0.004307
NI46   NI        0.381566    0.275897    0.070731     0.004307
NI47   NI        0.418183    0.239835    0.067452     0.004307
NI48   NI        0.418899    0.276890    0.039507     0.004307
NI49   NI        0.455742    0.243409    0.040338     0.004307
CU50   CU        0.455489    0.276820    0.067632     0.006663
NI51   NI        0.489461    0.240815    0.070716     0.004307
NI52   NI        0.489147    0.273903    0.038620     0.004307
NI53   NI        0.525841    0.242571    0.038833     0.004307
NI54   NI        0.525987    0.275445    0.068962     0.004307
NI55   NI        0.560166    0.241235    0.070748     0.004307
NI56   NI        0.562926    0.277567    0.042465     0.004307
NI57   NI        0.594233    0.276987    0.072844     0.004307
NI58   NI        0.629038    0.241125    0.070284     0.004307
NI59   NI        0.663350    0.276800    0.072614     0.004307
CU60   CU        0.213873    0.310135    0.069683     0.006663
NI61   NI        0.244119    0.346893    0.069739     0.004307
NI62   NI        0.277695    0.311739    0.070113     0.004307
NI63   NI        0.281120    0.345924    0.040059     0.004307
NI64   NI        0.312566    0.308431    0.041327     0.004307
NI65   NI        0.313322    0.344140    0.068024     0.004307
NI66   NI        0.349200    0.309920    0.069067     0.004307
NI67   NI        0.345972    0.343486    0.039055     0.004307
NI68   NI        0.383036    0.309881    0.040765     0.004307
CU69   CU        0.382685    0.344460    0.066462     0.006663
NI70   NI        0.418811    0.309285    0.067430     0.004307
CU71   CU        0.417680    0.345849    0.039436     0.006663
CU72   CU        0.454014    0.310553    0.040140     0.006663
CU73   CU        0.453789    0.347011    0.066203     0.006663
CU74   CU        0.489128    0.310371    0.069045     0.006663
NI75   NI        0.487345    0.346409    0.036370     0.004307
NI76   NI        0.525026    0.310760    0.042902     0.004307
NI77   NI        0.521441    0.351797    0.062316     0.004307
CU78   CU        0.559471    0.310214    0.071680     0.006663
CU79   CU        0.561374    0.343563    0.042816     0.006663
CU80   CU        0.595704    0.309441    0.038734     0.006663
NI81   NI        0.597208    0.342058    0.067901     0.004307
NI82   NI        0.629313    0.310275    0.070912     0.004307
NI83   NI        0.631984    0.345463    0.041845     0.004307
NI84   NI        0.665205    0.345213    0.071627     0.004307
NI85   NI        0.696189    0.312384    0.072130     0.004307
NI86   NI        0.176037    0.417215    0.071869     0.004307
NI87   NI        0.210668    0.378311    0.071035     0.004307
NI88   NI        0.243850    0.382814    0.040848     0.004307
NI89   NI        0.243366    0.417811    0.067673     0.004307
NI90   NI        0.277157    0.379030    0.068702     0.004307
NI91   NI        0.275952    0.417369    0.036798     0.004307
NI92   NI        0.310571    0.382698    0.039521     0.004307
CU93   CU        0.311342    0.418321    0.067449     0.006663
CU94   CU        0.345830    0.380680    0.066210     0.006663
NI95   NI        0.348244    0.416166    0.039130     0.004307
CU96   CU        0.382162    0.377940    0.037102     0.006663
CU97   CU        0.383275    0.414925    0.066664     0.006663
NI98   NI        0.416187    0.381913    0.066962     0.004307
NI99   NI        0.416859    0.416042    0.037120     0.004307
NI100   NI        0.450795    0.380988    0.037386     0.004307
CU101   CU        0.454868    0.417589    0.064218     0.006663
NI102   NI        0.486164    0.383384    0.065649     0.004307
CU103   CU        0.488184    0.418824    0.034595     0.006663
CU104   CU        0.521331    0.385878    0.033966     0.006663
NI105   NI        0.523518    0.418152    0.065233     0.004307
NI106   NI        0.556067    0.384986    0.059436     0.004307
NI107   NI        0.554196    0.421056    0.034322     0.004307
NI108   NI        0.599446    0.377229    0.042492     0.004307
NI109   NI        0.588334    0.420851    0.059991     0.004307
NI110   NI        0.635006    0.379305    0.070817     0.004307
NI111   NI        0.629757    0.413576    0.042839     0.004307
NI112   NI        0.664399    0.377346    0.040114     0.004307
NI113   NI        0.665869    0.412908    0.070797     0.004307
NI114   NI        0.696399    0.380373    0.071701     0.004307
NI115   NI        0.731802    0.418831    0.072805     0.004307
CU116   CU        0.177272    0.484661    0.070883     0.006663
CU117   CU        0.208990    0.451631    0.067948     0.006663
NI118   NI        0.243963    0.452962    0.041253     0.004307
NI119   NI        0.243809    0.487733    0.070095     0.004307
CU120   CU        0.279416    0.452079    0.066715     0.006663
NI121   NI        0.277620    0.487754    0.040509     0.004307
CU122   CU        0.311950    0.451238    0.037356     0.006663
CU123   CU        0.310984    0.486086    0.069169     0.006663
NI124   NI        0.345358    0.452508    0.065648     0.004307
NI125   NI        0.346991    0.487674    0.038243     0.004307
CU126   CU        0.380981    0.450783    0.036826     0.006663
CU127   CU        0.383254    0.485983    0.066376     0.006663
NI128   NI        0.417648    0.450912    0.065401     0.004307
NI129   NI        0.416141    0.486302    0.036363     0.004307
CU130   CU        0.449202    0.454276    0.036336     0.006663
CU131   CU        0.453558    0.487593    0.065959     0.006663
NI132   NI        0.487345    0.451666    0.063969     0.004307
CU133   CU        0.488678    0.491085    0.037835     0.006663
CU134   CU        0.520027    0.453934    0.036481     0.006663
NI135   NI        0.522805    0.490138    0.067281     0.004307
NI136   NI        0.556656    0.452677    0.066977     0.004307
NI137   NI        0.556700    0.488940    0.039334     0.004307
CU138   CU        0.584009    0.455062    0.030099     0.006663
NI139   NI        0.591471    0.487710    0.067047     0.004307
NI140   NI        0.622328    0.454683    0.061584     0.004307
NI141   NI        0.616442    0.487678    0.030386     0.004307
NI142   NI        0.663701    0.449380    0.044503     0.004307
NI143   NI        0.666147    0.491771    0.071553     0.004307
NI144   NI        0.700267    0.448598    0.071108     0.004307
CU145   CU        0.731482    0.490220    0.070166     0.006663
NI146   NI        0.209769    0.520292    0.071219     0.004307
CU147   CU        0.243025    0.525289    0.040438     0.006663
NI148   NI        0.241637    0.559124    0.069808     0.004307
CU149   CU        0.276302    0.521774    0.069693     0.006663
NI150   NI        0.279496    0.555105    0.040044     0.004307
CU151   CU        0.313333    0.521860    0.040276     0.006663
CU152   CU        0.312976    0.558682    0.066437     0.006663
CU153   CU        0.347352    0.524371    0.069153     0.006663
NI154   NI        0.346191    0.558803    0.039099     0.004307
CU155   CU        0.379992    0.523295    0.039276     0.006663
NI156   NI        0.382171    0.558314    0.069034     0.004307
NI157   NI        0.418405    0.523476    0.065501     0.004307
CU158   CU        0.418684    0.558886    0.040418     0.006663
NI159   NI        0.455637    0.520946    0.037470     0.004307
CU160   CU        0.452914    0.556355    0.068487     0.006663
CU161   CU        0.488741    0.523577    0.069075     0.006663
CU162   CU        0.487578    0.560040    0.040439     0.006663
CU163   CU        0.521895    0.525594    0.039949     0.006663
CU164   CU        0.522107    0.558099    0.070571     0.006663
NI165   NI        0.555993    0.524355    0.067627     0.004307
NI166   NI        0.558385    0.560230    0.040849     0.004307
NI167   NI        0.591193    0.527285    0.040952     0.004307
CU168   CU        0.595023    0.559500    0.069473     0.006663
CU169   CU        0.629520    0.523641    0.067559     0.006663
NI170   NI        0.628955    0.559403    0.041659     0.004307
NI171   NI        0.666157    0.528396    0.039690     0.004307
NI172   NI        0.665192    0.561159    0.068473     0.004307
NI173   NI        0.697353    0.522837    0.070387     0.004307
NI174   NI        0.207964    0.591995    0.070308     0.004307
NI175   NI        0.242812    0.626419    0.076454     0.004307
NI176   NI        0.276915    0.594000    0.069441     0.004307
NI177   NI        0.310969    0.593433    0.041087     0.004307
NI178   NI        0.311512    0.628394    0.070566     0.004307
CU179   CU        0.348796    0.592962    0.067323     0.006663
NI180   NI        0.346836    0.627517    0.038091     0.004307
NI181   NI        0.383982    0.593697    0.041549     0.004307
NI182   NI        0.381669    0.628574    0.069792     0.004307
NI183   NI        0.418680    0.593795    0.070242     0.004307
NI184   NI        0.420029    0.626244    0.040449     0.004307
NI185   NI        0.453941    0.590351    0.042135     0.004307
NI186   NI        0.453678    0.628722    0.071317     0.004307
NI187   NI        0.489435    0.593804    0.071356     0.004307
CU188   CU        0.489807    0.628222    0.041929     0.006663
NI189   NI        0.523655    0.594933    0.040097     0.004307
CU190   CU        0.524926    0.628840    0.069953     0.006663
NI191   NI        0.557821    0.594913    0.070224     0.004307
CU192   CU        0.559786    0.630685    0.042047     0.006663
NI193   NI        0.595930    0.593474    0.041531     0.004307
NI194   NI        0.593341    0.627885    0.070677     0.004307
NI195   NI        0.628207    0.594200    0.070671     0.004307
NI196   NI        0.664582    0.625883    0.066909     0.004307
NI197   NI        0.697165    0.592288    0.073095     0.004307
NI198   NI        0.274546    0.661680    0.073690     0.004307
NI199   NI        0.310994    0.692197    0.070734     0.004307
NI200   NI        0.344908    0.661479    0.070476     0.004307
NI201   NI        0.379946    0.662420    0.042803     0.004307
NI202   NI        0.381067    0.695756    0.071449     0.004307
NI203   NI        0.416991    0.661853    0.071272     0.004307
CU204   CU        0.452382    0.660216    0.042745     0.006663
NI205   NI        0.455110    0.696424    0.074227     0.004307
NI206   NI        0.487338    0.663268    0.070677     0.004307
NI207   NI        0.525015    0.663399    0.040293     0.004307
NI208   NI        0.522866    0.695284    0.071947     0.004307
NI209   NI        0.558076    0.660325    0.072913     0.004307
NI210   NI        0.595444    0.660623    0.038512     0.004307
NI211   NI        0.628769    0.625919    0.039876     0.004307
NI212   NI        0.414768    0.725763    0.070115     0.004307
NI213   NI        0.489135    0.728595    0.074029     0.004307
NI214   NI        0.315337    0.141083    0.132769     0.004307
NI215   NI        0.348223    0.106027    0.133160     0.004307
NI216   NI        0.349393    0.138146    0.099678     0.004307
NI217   NI        0.382909    0.137692    0.131113     0.004307
CU218   CU        0.417991    0.104062    0.132121     0.006663
NI219   NI        0.416603    0.138825    0.102406     0.004307
NI220   NI        0.452866    0.138130    0.129594     0.004307
NI221   NI        0.489654    0.106671    0.132931     0.004307
NI222   NI        0.488531    0.139820    0.100558     0.004307
NI223   NI        0.524842    0.139503    0.131016     0.004307
NI224   NI        0.560237    0.107692    0.136024     0.004307
NI225   NI        0.561832    0.140342    0.105906     0.004307
NI226   NI        0.594199    0.140424    0.134535     0.004307
NI227   NI        0.247046    0.207788    0.133202     0.004307
NI228   NI        0.280340    0.173833    0.132712     0.004307
NI229   NI        0.278518    0.207408    0.102364     0.004307
NI230   NI        0.313672    0.175574    0.100676     0.004307
NI231   NI        0.314146    0.206230    0.132119     0.004307
NI232   NI        0.349804    0.172389    0.129565     0.004307
CU233   CU        0.348685    0.207064    0.099019     0.006663
CU234   CU        0.386054    0.175582    0.100839     0.006663
CU235   CU        0.379840    0.207995    0.129151     0.006663
CU236   CU        0.420327    0.173151    0.130083     0.006663
NI237   NI        0.419385    0.205172    0.098960     0.004307
NI238   NI        0.454234    0.172086    0.100816     0.004307
NI239   NI        0.453675    0.204829    0.132030     0.004307
NI240   NI        0.485952    0.171332    0.131783     0.004307
NI241   NI        0.490181    0.208922    0.101135     0.004307
NI242   NI        0.525121    0.173557    0.101923     0.004307
NI243   NI        0.523690    0.206495    0.131623     0.004307
NI244   NI        0.559110    0.172922    0.133472     0.004307
NI245   NI        0.558667    0.205298    0.103113     0.004307
NI246   NI        0.596854    0.172070    0.104634     0.004307
NI247   NI        0.596391    0.207846    0.130224     0.004307
NI248   NI        0.629737    0.176084    0.133891     0.004307
NI249   NI        0.629045    0.209339    0.102804     0.004307
NI250   NI        0.661472    0.210208    0.133300     0.004307
NI251   NI        0.178217    0.277778    0.133140     0.004307
NI252   NI        0.211081    0.241706    0.130619     0.004307
NI253   NI        0.210481    0.275585    0.100879     0.004307
CU254   CU        0.245978    0.242474    0.100807     0.006663
NI255   NI        0.244706    0.276210    0.130924     0.004307
NI256   NI        0.279408    0.240580    0.130985     0.004307
NI257   NI        0.278218    0.277109    0.100128     0.004307
NI258   NI        0.313086    0.241459    0.099774     0.004307
NI259   NI        0.312918    0.274171    0.129752     0.004307
NI260   NI        0.347423    0.241440    0.129120     0.004307
NI261   NI        0.348833    0.273058    0.099455     0.004307
NI262   NI        0.384637    0.239554    0.098046     0.004307
NI263   NI        0.383270    0.272200    0.128667     0.004307
NI264   NI        0.416435    0.237370    0.129320     0.004307
NI265   NI        0.417752    0.273731    0.097959     0.004307
NI266   NI        0.453223    0.240065    0.099673     0.004307
NI267   NI        0.450689    0.274630    0.127481     0.004307
NI268   NI        0.488313    0.239959    0.132588     0.004307
CU269   CU        0.488354    0.273139    0.098771     0.006663
NI270   NI        0.522462    0.240940    0.100528     0.004307
NI271   NI        0.523208    0.274309    0.130653     0.004307
NI272   NI        0.557525    0.239745    0.129121     0.004307
CU273   CU        0.558040    0.275679    0.100384     0.006663
NI274   NI        0.592049    0.245124    0.099720     0.004307
NI275   NI        0.594371    0.275073    0.129353     0.004307
CU276   CU        0.628278    0.244645    0.132361     0.006663
NI277   NI        0.629264    0.276500    0.100340     0.004307
NI278   NI        0.663187    0.243059    0.103011     0.004307
NI279   NI        0.661484    0.276220    0.133684     0.004307
NI280   NI        0.694956    0.243085    0.132702     0.004307
NI281   NI        0.697673    0.278532    0.100310     0.004307
CU282   CU        0.730180    0.278848    0.134156     0.006663
NI283   NI        0.110244    0.346113    0.132929     0.004307
CU284   CU        0.146651    0.312270    0.130875     0.006663
NI285   NI        0.144261    0.347136    0.102008     0.004307
NI286   NI        0.177799    0.310732    0.100650     0.004307
NI287   NI        0.175317    0.346632    0.130550     0.004307
NI288   NI        0.209618    0.311398    0.132190     0.004307
NI289   NI        0.210370    0.343779    0.100449     0.004307
NI290   NI        0.243390    0.310780    0.101334     0.004307
NI291   NI        0.244682    0.345097    0.131230     0.004307
NI292   NI        0.279345    0.310060    0.130708     0.004307
CU293   CU        0.278512    0.344006    0.098455     0.006663
CU294   CU        0.312951    0.309734    0.100064     0.006663
NI295   NI        0.311965    0.346755    0.126999     0.004307
CU296   CU        0.348367    0.310512    0.126698     0.006663
NI297   NI        0.346083    0.345064    0.096398     0.004307
NI298   NI        0.383058    0.307599    0.098794     0.004307
NI299   NI        0.379125    0.343045    0.123835     0.004307
NI300   NI        0.417875    0.311119    0.124731     0.004307
NI301   NI        0.416855    0.344518    0.093936     0.004307
NI302   NI        0.451977    0.309423    0.097620     0.004307
NI303   NI        0.450041    0.344607    0.122377     0.004307
NI304   NI        0.484596    0.313156    0.125535     0.004307
NI305   NI        0.490554    0.346191    0.093472     0.004307
NI306   NI        0.522218    0.306524    0.100575     0.004307
CU307   CU        0.520712    0.350105    0.145636     0.006663
NI308   NI        0.560046    0.307160    0.130382     0.004307
NI309   NI        0.560253    0.353284    0.089621     0.004307
CU310   CU        0.594999    0.311788    0.102231     0.006663
CU311   CU        0.591159    0.357569    0.139252     0.006663
NI312   NI        0.629264    0.308472    0.130928     0.004307
NI313   NI        0.633325    0.344061    0.100529     0.004307
NI314   NI        0.663194    0.310499    0.100634     0.004307
NI315   NI        0.664094    0.343991    0.130404     0.004307
NI316   NI        0.697897    0.309994    0.132596     0.004307
CU317   CU        0.699081    0.346847    0.102300     0.006663
NI318   NI        0.731857    0.312184    0.102492     0.004307
NI319   NI        0.730785    0.345913    0.134934     0.004307
NI320   NI        0.764483    0.315786    0.136264     0.004307
NI321   NI        0.764037    0.347962    0.104396     0.004307
NI322   NI        0.795903    0.346887    0.134657     0.004307
NI323   NI        0.106811    0.412169    0.132103     0.004307
NI324   NI        0.140244    0.380962    0.133099     0.004307
NI325   NI        0.142416    0.414515    0.104409     0.004307
NI326   NI        0.175629    0.381397    0.101414     0.004307
CU327   CU        0.175470    0.415324    0.131318     0.006663
CU328   CU        0.210916    0.379373    0.128085     0.006663
NI329   NI        0.207792    0.416046    0.100094     0.004307
NI330   NI        0.244157    0.381126    0.097672     0.004307
NI331   NI        0.244360    0.414378    0.128804     0.004307
NI332   NI        0.276813    0.380550    0.126886     0.004307
CU333   CU        0.279894    0.414091    0.097246     0.006663
NI334   NI        0.313005    0.378606    0.096339     0.004307
NI335   NI        0.314480    0.414485    0.126626     0.004307
CU336   CU        0.345251    0.379827    0.126298     0.006663
NI337   NI        0.348624    0.417519    0.095205     0.004307
NI338   NI        0.380110    0.378143    0.094853     0.004307
NI339   NI        0.388484    0.416771    0.144823     0.004307
NI340   NI        0.421811    0.385232    0.145628     0.004307
NI341   NI        0.420256    0.416547    0.093499     0.004307
NI342   NI        0.450042    0.380237    0.093566     0.004307
NI343   NI        0.453877    0.415981    0.142448     0.004307
NI344   NI        0.489764    0.383756    0.143468     0.004307
NI345   NI        0.488310    0.420289    0.095141     0.004307
NI346   NI        0.523484    0.384387    0.091302     0.004307
CU347   CU        0.519448    0.420259    0.143863     0.006663
NI348   NI        0.556305    0.383052    0.140846     0.004307
NI349   NI        0.560901    0.415811    0.092156     0.004307
NI350   NI        0.589710    0.386004    0.108134     0.004307
CU351   CU        0.588307    0.418943    0.143472     0.006663
NI352   NI        0.629656    0.381075    0.130145     0.004307
NI353   NI        0.618916    0.422293    0.110213     0.004307
CU354   CU        0.664901    0.379433    0.102258     0.006663
NI355   NI        0.657305    0.420688    0.143319     0.004307
CU356   CU        0.699798    0.377631    0.132145     0.006663
NI357   NI        0.698861    0.414038    0.102110     0.004307
NI358   NI        0.732026    0.383319    0.103833     0.004307
CU359   CU        0.732121    0.418958    0.130835     0.006663
NI360   NI        0.764406    0.382007    0.133926     0.004307
CU361   CU        0.764343    0.417734    0.102844     0.006663
NI362   NI        0.799675    0.419432    0.132337     0.004307
NI363   NI        0.109221    0.484251    0.134298     0.004307
NI364   NI        0.137988    0.449499    0.132355     0.004307
NI365   NI        0.141660    0.485430    0.105014     0.004307
NI366   NI        0.174597    0.452210    0.100994     0.004307
NI367   NI        0.175528    0.485280    0.132760     0.004307
CU368   CU        0.209412    0.450237    0.129497     0.006663
CU369   CU        0.210638    0.485494    0.100751     0.006663
CU370   CU        0.244156    0.452417    0.100128     0.006663
NI371   NI        0.244270    0.486517    0.130608     0.004307
NI372   NI        0.278320    0.448031    0.126772     0.004307
CU373   CU        0.278773    0.485280    0.099251     0.006663
NI374   NI        0.312069    0.451007    0.097474     0.004307
NI375   NI        0.317148    0.489900    0.124535     0.004307
NI376   NI        0.349330    0.449942    0.124958     0.004307
NI377   NI        0.347938    0.484301    0.094800     0.004307
NI378   NI        0.380193    0.450833    0.093699     0.004307
NI379   NI        0.384205    0.488177    0.125486     0.004307
CU380   CU        0.418896    0.448916    0.124375     0.006663
NI381   NI        0.416095    0.485028    0.094873     0.004307
NI382   NI        0.452618    0.452666    0.093363     0.004307
NI383   NI        0.448897    0.488190    0.124631     0.004307
CU384   CU        0.486384    0.451864    0.125928     0.006663
CU385   CU        0.488526    0.486673    0.095939     0.006663
NI386   NI        0.520080    0.454139    0.095072     0.004307
CU387   CU        0.522866    0.486534    0.123872     0.006663
CU388   CU        0.553002    0.454040    0.144993     0.006663
NI389   NI        0.557855    0.487737    0.094000     0.004307
NI390   NI        0.593459    0.453495    0.092422     0.004307
NI391   NI        0.588006    0.486099    0.144713     0.004307
NI392   NI        0.622714    0.451931    0.143355     0.004307
NI393   NI        0.627242    0.487945    0.092969     0.004307
NI394   NI        0.653324    0.452483    0.114026     0.004307
NI395   NI        0.654062    0.483986    0.144077     0.004307
NI396   NI        0.699241    0.454311    0.128846     0.004307
NI397   NI        0.700759    0.487741    0.100114     0.004307
NI398   NI        0.732098    0.452437    0.101868     0.004307
NI399   NI        0.731234    0.488752    0.133311     0.004307
CU400   CU        0.767424    0.453171    0.133054     0.006663
NI401   NI        0.762470    0.489407    0.103937     0.004307
CU402   CU        0.797045    0.488204    0.134058     0.006663
NI403   NI        0.108567    0.558122    0.131601     0.004307
NI404   NI        0.141759    0.521088    0.132037     0.004307
CU405   CU        0.141836    0.555596    0.102773     0.006663
CU406   CU        0.172609    0.522516    0.100187     0.006663
NI407   NI        0.173182    0.554444    0.130962     0.004307
NI408   NI        0.206897    0.521404    0.131239     0.004307
NI409   NI        0.209912    0.557537    0.100316     0.004307
NI410   NI        0.241239    0.522898    0.100729     0.004307
NI411   NI        0.243569    0.556403    0.131533     0.004307
NI412   NI        0.277578    0.518603    0.125452     0.004307
CU413   CU        0.274668    0.555710    0.099707     0.006663
NI414   NI        0.310800    0.522659    0.096158     0.004307
NI415   NI        0.313582    0.558061    0.125645     0.004307
NI416   NI        0.349300    0.522007    0.120288     0.004307
NI417   NI        0.347056    0.558985    0.096567     0.004307
CU418   CU        0.384311    0.520860    0.094713     0.006663
NI419   NI        0.382151    0.555979    0.125953     0.004307
NI420   NI        0.417237    0.521452    0.124723     0.004307
CU421   CU        0.418902    0.556364    0.096103     0.006663
NI422   NI        0.453642    0.522660    0.096023     0.004307
NI423   NI        0.450070    0.554718    0.126493     0.004307
CU424   CU        0.485779    0.520969    0.127098     0.006663
NI425   NI        0.486035    0.559146    0.099545     0.004307
CU426   CU        0.521549    0.521425    0.097871     0.006663
NI427   NI        0.524940    0.558252    0.124908     0.004307
NI428   NI        0.556918    0.525469    0.124744     0.004307
NI429   NI        0.560153    0.560408    0.098523     0.004307
NI430   NI        0.591317    0.524443    0.096551     0.004307
NI431   NI        0.593821    0.557381    0.126778     0.004307
NI432   NI        0.620778    0.516548    0.145912     0.004307
CU433   CU        0.630305    0.559971    0.100675     0.006663
NI434   NI        0.663988    0.525020    0.100020     0.004307
NI435   NI        0.664539    0.559080    0.129582     0.004307
CU436   CU        0.698227    0.525112    0.128873     0.006663
NI437   NI        0.697648    0.559782    0.100561     0.004307
NI438   NI        0.733043    0.523154    0.102431     0.004307
NI439   NI        0.733188    0.557321    0.133531     0.004307
NI440   NI        0.764950    0.522843    0.133708     0.004307
NI441   NI        0.765082    0.559091    0.102108     0.004307
NI442   NI        0.797329    0.554750    0.132733     0.004307
NI443   NI        0.142949    0.589820    0.132155     0.004307
NI444   NI        0.178209    0.587532    0.101795     0.004307
CU445   CU        0.178865    0.624422    0.135368     0.006663
NI446   NI        0.208929    0.590061    0.133532     0.004307
NI447   NI        0.209218    0.623066    0.105464     0.004307
NI448   NI        0.241654    0.590154    0.103020     0.004307
CU449   CU        0.243848    0.626678    0.136668     0.006663
CU450   CU        0.277792    0.590620    0.130816     0.006663
CU451   CU        0.276901    0.626008    0.103022     0.006663
NI452   NI        0.312748    0.592873    0.098978     0.004307
NI453   NI        0.310158    0.627311    0.129004     0.004307
NI454   NI        0.345223    0.591146    0.128661     0.004307
CU455   CU        0.345438    0.627757    0.099359     0.006663
NI456   NI        0.381986    0.592714    0.098238     0.004307
NI457   NI        0.381588    0.628428    0.128913     0.004307
NI458   NI        0.415552    0.588262    0.127165     0.004307
NI459   NI        0.418787    0.627727    0.101495     0.004307
NI460   NI        0.451952    0.592843    0.099225     0.004307
NI461   NI        0.454624    0.628798    0.130092     0.004307
NI462   NI        0.491024    0.592480    0.128547     0.004307
NI463   NI        0.487262    0.627061    0.100567     0.004307
CU464   CU        0.523742    0.596389    0.098752     0.006663
NI465   NI        0.524598    0.627638    0.130021     0.004307
NI466   NI        0.558632    0.591395    0.128277     0.004307
NI467   NI        0.557998    0.628569    0.101658     0.004307
NI468   NI        0.594326    0.594360    0.099568     0.004307
NI469   NI        0.596023    0.629546    0.129373     0.004307
NI470   NI        0.628121    0.595224    0.128252     0.004307
NI471   NI        0.626827    0.627262    0.100257     0.004307
NI472   NI        0.664532    0.591962    0.100802     0.004307
CU473   CU        0.663431    0.627887    0.129047     0.006663
NI474   NI        0.697298    0.592641    0.131779     0.004307
NI475   NI        0.700271    0.625711    0.102805     0.004307
NI476   NI        0.729421    0.592012    0.103153     0.004307
NI477   NI        0.730719    0.625435    0.135044     0.004307
NI478   NI        0.764803    0.590845    0.133624     0.004307
NI479   NI        0.211257    0.657830    0.135347     0.004307
NI480   NI        0.244738    0.660714    0.105340     0.004307
NI481   NI        0.245597    0.694845    0.134559     0.004307
CU482   CU        0.279412    0.662395    0.132435     0.006663
NI483   NI        0.280068    0.696222    0.102727     0.004307
NI484   NI        0.312251    0.660426    0.099993     0.004307
NI485   NI        0.314503    0.694476    0.131383     0.004307
CU486   CU        0.347006    0.660111    0.130963     0.006663
NI487   NI        0.347992    0.698397    0.100645     0.004307
NI488   NI        0.382414    0.662511    0.100568     0.004307
NI489   NI        0.382816    0.697163    0.131121     0.004307
NI490   NI        0.418155    0.662991    0.130787     0.004307
NI491   NI        0.418025    0.697360    0.102019     0.004307
NI492   NI        0.450865    0.661461    0.101727     0.004307
NI493   NI        0.451431    0.695136    0.133311     0.004307
NI494   NI        0.489180    0.664643    0.131256     0.004307
NI495   NI        0.488801    0.697679    0.102197     0.004307
CU496   CU        0.525032    0.662234    0.101890     0.006663
NI497   NI        0.521230    0.696031    0.131779     0.004307
CU498   CU        0.559453    0.662814    0.132111     0.006663
NI499   NI        0.556891    0.695338    0.100128     0.004307
NI500   NI        0.593117    0.660669    0.101035     0.004307
NI501   NI        0.590753    0.697054    0.131227     0.004307
NI502   NI        0.628436    0.662347    0.130749     0.004307
NI503   NI        0.627824    0.696309    0.103445     0.004307
NI504   NI        0.660073    0.658753    0.100376     0.004307
NI505   NI        0.658763    0.695614    0.133768     0.004307
NI506   NI        0.696321    0.660527    0.134665     0.004307
NI507   NI        0.282130    0.731475    0.132785     0.004307
NI508   NI        0.314700    0.730611    0.101987     0.004307
NI509   NI        0.315179    0.763876    0.132049     0.004307
NI510   NI        0.347931    0.730616    0.132770     0.004307
NI511   NI        0.347797    0.761998    0.102139     0.004307
NI512   NI        0.382022    0.728911    0.102242     0.004307
CU513   CU        0.381060    0.764305    0.131013     0.006663
NI514   NI        0.416402    0.731584    0.133929     0.004307
NI515   NI        0.416372    0.761688    0.101183     0.004307
NI516   NI        0.450549    0.731183    0.102938     0.004307
CU517   CU        0.453852    0.764459    0.133491     0.006663
NI518   NI        0.485159    0.729759    0.132691     0.004307
NI519   NI        0.486112    0.760431    0.103873     0.004307
NI520   NI        0.522344    0.727983    0.101793     0.004307
NI521   NI        0.522368    0.762059    0.132583     0.004307
NI522   NI        0.556043    0.728969    0.131374     0.004307
NI523   NI        0.557558    0.762018    0.103224     0.004307
NI524   NI        0.590429    0.727836    0.101975     0.004307
NI525   NI        0.593068    0.764113    0.130076     0.004307
NI526   NI        0.624545    0.729950    0.132154     0.004307
NI527   NI        0.345526    0.795102    0.131226     0.004307
NI528   NI        0.418967    0.797133    0.132053     0.004307
NI529   NI        0.489521    0.795673    0.132174     0.004307
NI530   NI        0.556920    0.795089    0.131434     0.004307
NI531   NI        0.315118    0.073819    0.194849     0.004307
NI532   NI        0.386770    0.075203    0.193937     0.004307
NI533   NI        0.419608    0.071825    0.165343     0.004307
NI534   NI        0.455506    0.070795    0.194149     0.004307
NI535   NI        0.491604    0.074628    0.160613     0.004307
NI536   NI        0.522769    0.072281    0.195125     0.004307
NI537   NI        0.595946    0.075301    0.194441     0.004307
NI538   NI        0.250973    0.137940    0.198662     0.004307
NI539   NI        0.283900    0.106751    0.197138     0.004307
NI540   NI        0.280900    0.139998    0.164109     0.004307
CU541   CU        0.314571    0.107739    0.162780     0.006663
NI542   NI        0.316116    0.138171    0.195366     0.004307
NI543   NI        0.348912    0.105560    0.192154     0.004307
CU544   CU        0.349967    0.139492    0.163177     0.006663
NI545   NI        0.382026    0.103725    0.162587     0.004307
CU546   CU        0.383542    0.138735    0.191456     0.006663
NI547   NI        0.418925    0.104623    0.193339     0.004307
CU548   CU        0.418082    0.137839    0.160795     0.006663
NI549   NI        0.452531    0.105411    0.160575     0.004307
NI550   NI        0.452085    0.136547    0.192260     0.004307
CU551   CU        0.488306    0.104089    0.193993     0.006663
NI552   NI        0.486970    0.136622    0.163062     0.004307
NI553   NI        0.524073    0.107145    0.162969     0.004307
NI554   NI        0.521981    0.146881    0.210734     0.004307
NI555   NI        0.560148    0.103316    0.194081     0.004307
NI556   NI        0.561344    0.140402    0.164053     0.004307
CU557   CU        0.593844    0.108882    0.164361     0.006663
NI558   NI        0.594713    0.139018    0.195593     0.004307
CU559   CU        0.628785    0.109921    0.196690     0.006663
NI560   NI        0.628077    0.140253    0.165147     0.004307
CU561   CU        0.662651    0.142726    0.198045     0.006663
NI562   NI        0.177494    0.206674    0.196734     0.004307
CU563   CU        0.208698    0.176021    0.193745     0.006663
NI564   NI        0.212240    0.207332    0.161516     0.004307
NI565   NI        0.246482    0.172476    0.168025     0.004307
NI566   NI        0.241788    0.207472    0.194504     0.004307
NI567   NI        0.283039    0.174417    0.194712     0.004307
NI568   NI        0.279576    0.205036    0.163605     0.004307
NI569   NI        0.316126    0.172192    0.163853     0.004307
CU570   CU        0.315721    0.205851    0.192609     0.006663
CU571   CU        0.348278    0.171165    0.195731     0.006663
NI572   NI        0.348701    0.205042    0.158973     0.004307
NI573   NI        0.384633    0.171924    0.159640     0.004307
CU574   CU        0.381754    0.204697    0.192062     0.006663
NI575   NI        0.416570    0.169865    0.190677     0.004307
CU576   CU        0.416960    0.207471    0.159635     0.006663
NI577   NI        0.451339    0.170962    0.161637     0.004307
NI578   NI        0.452346    0.203530    0.192833     0.004307
NI579   NI        0.488221    0.168669    0.191703     0.004307
CU580   CU        0.489205    0.205887    0.160884     0.006663
NI581   NI        0.522078    0.172656    0.159182     0.004307
NI582   NI        0.523020    0.201337    0.192040     0.004307
CU583   CU        0.561290    0.170402    0.195586     0.006663
NI584   NI        0.557593    0.205120    0.162028     0.004307
NI585   NI        0.594098    0.173678    0.163445     0.004307
CU586   CU        0.594406    0.204104    0.195216     0.006663
CU587   CU        0.627808    0.172127    0.195353     0.006663
NI588   NI        0.627614    0.206382    0.165391     0.004307
NI589   NI        0.664402    0.173700    0.166519     0.004307
NI590   NI        0.666552    0.206828    0.195619     0.004307
NI591   NI        0.696228    0.171750    0.198802     0.004307
NI592   NI        0.696739    0.209543    0.163073     0.004307
CU593   CU        0.731683    0.207053    0.199727     0.006663
NI594   NI        0.104051    0.239979    0.183443     0.004307
NI595   NI        0.145624    0.242383    0.199861     0.004307
NI596   NI        0.111026    0.279781    0.196166     0.004307
NI597   NI        0.177126    0.243065    0.164443     0.004307
CU598   CU        0.176207    0.273423    0.206108     0.006663
CU599   CU        0.208212    0.238647    0.192466     0.006663
NI600   NI        0.212790    0.275242    0.160675     0.004307
NI601   NI        0.246126    0.240186    0.162176     0.004307
NI602   NI        0.244144    0.274376    0.191565     0.004307
NI603   NI        0.278474    0.239412    0.191499     0.004307
NI604   NI        0.277931    0.276137    0.160792     0.004307
NI605   NI        0.311759    0.238514    0.162484     0.004307
CU606   CU        0.320103    0.286683    0.204992     0.006663
NI607   NI        0.349985    0.238088    0.191533     0.004307
NI608   NI        0.355212    0.281201    0.178256     0.004307
NI609   NI        0.381542    0.239930    0.161704     0.004307
CU610   CU        0.387529    0.285964    0.209036     0.006663
NI611   NI        0.418789    0.234941    0.194032     0.004307
NI612   NI        0.418779    0.283254    0.178376     0.004307
NI613   NI        0.453110    0.237689    0.160688     0.004307
CU614   CU        0.452729    0.282655    0.208684     0.006663
NI615   NI        0.481978    0.241862    0.194355     0.004307
CU616   CU        0.483199    0.284178    0.176923     0.006663
NI617   NI        0.527309    0.238814    0.159975     0.004307
NI618   NI        0.524482    0.285645    0.207260     0.004307
NI619   NI        0.554895    0.248440    0.210834     0.004307
NI620   NI        0.560123    0.275030    0.157166     0.004307
CU621   CU        0.591088    0.240795    0.159436     0.006663
NI622   NI        0.587537    0.284832    0.209494     0.004307
NI623   NI        0.628908    0.240678    0.194201     0.004307
NI624   NI        0.629313    0.275953    0.163674     0.004307
NI625   NI        0.662647    0.241483    0.163906     0.004307
NI626   NI        0.652198    0.284878    0.202988     0.004307
NI627   NI        0.700111    0.237459    0.196921     0.004307
NI628   NI        0.698541    0.275923    0.162017     0.004307
NI629   NI        0.729216    0.244299    0.163306     0.004307
CU630   CU        0.730402    0.274772    0.195532     0.006663
NI631   NI        0.764756    0.244361    0.199385     0.004307
NI632   NI        0.764307    0.280310    0.163679     0.004307
NI633   NI        0.804403    0.291804    0.202071     0.004307
NI634   NI        0.077137    0.311271    0.198138     0.004307
NI635   NI        0.111082    0.312077    0.162459     0.004307
CU636   CU        0.106498    0.344560    0.193575     0.006663
NI637   NI        0.145935    0.309378    0.196419     0.004307
NI638   NI        0.142613    0.346189    0.163344     0.004307
NI639   NI        0.178256    0.314312    0.161400     0.004307
NI640   NI        0.175447    0.345815    0.191670     0.004307
NI641   NI        0.209470    0.309503    0.191874     0.004307
NI642   NI        0.209450    0.346277    0.161599     0.004307
CU643   CU        0.243222    0.308976    0.160331     0.006663
CU644   CU        0.251387    0.349472    0.206149     0.006663
NI645   NI        0.285357    0.317337    0.205436     0.004307
NI646   NI        0.277909    0.348019    0.157920     0.004307
NI647   NI        0.318854    0.318053    0.174402     0.004307
NI648   NI        0.319611    0.348743    0.206583     0.004307
CU649   CU        0.353686    0.316357    0.205192     0.006663
NI650   NI        0.356232    0.348622    0.175478     0.004307
NI651   NI        0.388028    0.314625    0.176587     0.004307
CU652   CU        0.386664    0.350975    0.205677     0.006663
CU653   CU        0.420043    0.318107    0.207318     0.006663
NI654   NI        0.417466    0.350454    0.175943     0.004307
NI655   NI        0.451056    0.315405    0.176958     0.004307
NI656   NI        0.453678    0.351159    0.203218     0.004307
NI657   NI        0.488101    0.317159    0.205141     0.004307
NI658   NI        0.488565    0.350808    0.174910     0.004307
CU659   CU        0.520917    0.317934    0.176332     0.006663
CU660   CU        0.520883    0.352177    0.204966     0.006663
NI661   NI        0.553983    0.320337    0.207952     0.004307
NI662   NI        0.556041    0.348141    0.173163     0.004307
NI663   NI        0.593441    0.315637    0.156540     0.004307
CU664   CU        0.586875    0.353073    0.205131     0.006663
NI665   NI        0.620227    0.320127    0.205635     0.004307
NI666   NI        0.617663    0.347945    0.174415     0.004307
NI667   NI        0.655504    0.323535    0.175645     0.004307
NI668   NI        0.653897    0.355561    0.204326     0.004307
CU669   CU        0.686287    0.316402    0.204573     0.006663
CU670   CU        0.698131    0.342100    0.164648     0.006663
CU671   CU        0.732392    0.311115    0.163873     0.006663
NI672   NI        0.720876    0.356131    0.203063     0.004307
NI673   NI        0.763240    0.307862    0.198745     0.004307
NI674   NI        0.765497    0.348575    0.164784     0.004307
NI675   NI        0.794580    0.315669    0.167858     0.004307
NI676   NI        0.796265    0.341111    0.202358     0.004307
NI677   NI        0.834959    0.321210    0.192586     0.004307
NI678   NI        0.075798    0.378692    0.195263     0.004307
CU679   CU        0.075723    0.411863    0.160940     0.006663
CU680   CU        0.107785    0.377976    0.162912     0.006663
CU681   CU        0.106345    0.413697    0.191326     0.006663
CU682   CU        0.139904    0.381106    0.192063     0.006663
NI683   NI        0.141025    0.413979    0.162517     0.004307
NI684   NI        0.175142    0.380722    0.160538     0.004307
NI685   NI        0.173949    0.412482    0.191335     0.004307
NI686   NI        0.207341    0.380936    0.192205     0.004307
NI687   NI        0.210067    0.412625    0.160900     0.004307
NI688   NI        0.245443    0.381308    0.159544     0.004307
NI689   NI        0.251576    0.419251    0.205535     0.004307
NI690   NI        0.278378    0.381790    0.191221     0.004307
NI691   NI        0.280057    0.412379    0.156383     0.004307
CU692   CU        0.310291    0.379352    0.157703     0.006663
NI693   NI        0.312347    0.409144    0.196598     0.004307
CU694   CU        0.353417    0.382420    0.204399     0.006663
NI695   NI        0.353567    0.418300    0.178513     0.004307
CU696   CU        0.386303    0.384791    0.174682     0.006663
CU697   CU        0.386859    0.416226    0.207025     0.006663
NI698   NI        0.420045    0.385525    0.204484     0.004307
CU699   CU        0.420398    0.416752    0.175950     0.006663
NI700   NI        0.453600    0.383984    0.173346     0.004307
CU701   CU        0.455270    0.416033    0.206057     0.006663
NI702   NI        0.486227    0.384250    0.205848     0.004307
CU703   CU        0.488540    0.416976    0.173913     0.006663
CU704   CU        0.523252    0.381938    0.173386     0.006663
NI705   NI        0.519605    0.419399    0.204562     0.004307
CU706   CU        0.553173    0.384243    0.204503     0.006663
NI707   NI        0.553498    0.415999    0.173436     0.004307
NI708   NI        0.586129    0.385431    0.173823     0.004307
NI709   NI        0.587091    0.417880    0.204804     0.004307
NI710   NI        0.620176    0.384383    0.204399     0.004307
NI711   NI        0.621310    0.421135    0.173250     0.004307
NI712   NI        0.655646    0.387914    0.173075     0.004307
NI713   NI        0.655205    0.420447    0.204881     0.004307
CU714   CU        0.689185    0.387608    0.205295     0.006663
NI715   NI        0.690661    0.419563    0.173286     0.004307
NI716   NI        0.735222    0.382184    0.163600     0.004307
NI717   NI        0.726087    0.422871    0.204318     0.004307
NI718   NI        0.770599    0.377723    0.196032     0.004307
NI719   NI        0.766421    0.417336    0.161108     0.004307
NI720   NI        0.799356    0.386692    0.163380     0.004307
NI721   NI        0.800082    0.417025    0.195070     0.004307
NI722   NI        0.832435    0.385524    0.195206     0.004307
NI723   NI        0.830711    0.417230    0.163604     0.004307
NI724   NI        0.076284    0.447676    0.196192     0.004307
NI725   NI        0.059319    0.455820    0.157318     0.004307
NI726   NI        0.104012    0.447738    0.161685     0.004307
NI727   NI        0.107360    0.484311    0.193929     0.004307
CU728   CU        0.139844    0.451477    0.191090     0.006663
NI729   NI        0.141670    0.485165    0.162473     0.004307
NI730   NI        0.174405    0.448882    0.161294     0.004307
NI731   NI        0.171209    0.487135    0.191893     0.004307
CU732   CU        0.217279    0.450952    0.205890     0.006663
NI733   NI        0.206010    0.487353    0.161817     0.004307
CU734   CU        0.242815    0.447443    0.157032     0.006663
NI735   NI        0.254737    0.483267    0.207042     0.004307
NI736   NI        0.284743    0.450980    0.204131     0.004307
NI737   NI        0.287470    0.483869    0.176095     0.004307
CU738   CU        0.321808    0.450030    0.174650     0.006663
NI739   NI        0.320536    0.484237    0.206755     0.004307
CU740   CU        0.355289    0.452391    0.205589     0.006663
NI741   NI        0.352575    0.485265    0.175399     0.004307
NI742   NI        0.388883    0.449913    0.174749     0.004307
NI743   NI        0.387119    0.483097    0.205316     0.004307
CU744   CU        0.419955    0.450783    0.206816     0.006663
CU745   CU        0.422455    0.483425    0.177732     0.006663
CU746   CU        0.453641    0.451792    0.176242     0.006663
NI747   NI        0.454304    0.483986    0.206542     0.004307
CU748   CU        0.486531    0.451359    0.205379     0.006663
CU749   CU        0.484914    0.485605    0.176295     0.006663
NI750   NI        0.519158    0.453188    0.176100     0.004307
NI751   NI        0.519068    0.484843    0.205708     0.004307
CU752   CU        0.553277    0.451889    0.204367     0.006663
NI753   NI        0.552915    0.484754    0.175859     0.004307
NI754   NI        0.585744    0.450936    0.174118     0.004307
CU755   CU        0.586767    0.483259    0.207503     0.006663
NI756   NI        0.621491    0.451988    0.205517     0.004307
NI757   NI        0.619626    0.482997    0.173632     0.004307
NI758   NI        0.656849    0.453023    0.174698     0.004307
NI759   NI        0.654957    0.481333    0.208116     0.004307
CU760   CU        0.688360    0.450442    0.205740     0.006663
NI761   NI        0.687025    0.485904    0.176410     0.004307
NI762   NI        0.733786    0.452317    0.160710     0.004307
NI763   NI        0.720248    0.485332    0.207844     0.004307
CU764   CU        0.761339    0.452869    0.209518     0.006663
NI765   NI        0.764922    0.488655    0.163712     0.004307
NI766   NI        0.799384    0.453803    0.164664     0.004307
NI767   NI        0.801376    0.490545    0.196916     0.004307
CU768   CU        0.828413    0.450916    0.197140     0.006663
NI769   NI        0.831467    0.488316    0.165411     0.004307
NI770   NI        0.077825    0.522357    0.195883     0.004307
NI771   NI        0.109854    0.523369    0.163832     0.004307
CU772   CU        0.107593    0.554436    0.193862     0.006663
NI773   NI        0.141036    0.520250    0.192013     0.004307
NI774   NI        0.142546    0.555080    0.162799     0.004307
NI775   NI        0.173814    0.520039    0.161891     0.004307
CU776   CU        0.171459    0.555715    0.193976     0.006663
CU777   CU        0.201985    0.520471    0.193907     0.006663
NI778   NI        0.208393    0.556467    0.162037     0.004307
NI779   NI        0.256889    0.515821    0.165750     0.004307
NI780   NI        0.253571    0.548602    0.205132     0.004307
CU781   CU        0.286388    0.516358    0.204623     0.006663
NI782   NI        0.287346    0.550870    0.175834     0.004307
NI783   NI        0.318687    0.517734    0.173579     0.004307
NI784   NI        0.320489    0.551895    0.205583     0.004307
CU785   CU        0.352873    0.517913    0.205493     0.006663
NI786   NI        0.352452    0.553158    0.177229     0.004307
CU787   CU        0.379008    0.523478    0.155588     0.006663
NI788   NI        0.384375    0.550255    0.209192     0.004307
NI789   NI        0.417830    0.519581    0.205539     0.004307
NI790   NI        0.416191    0.554530    0.156508     0.004307
NI791   NI        0.448150    0.516640    0.157714     0.004307
CU792   CU        0.452390    0.553368    0.205160     0.006663
CU793   CU        0.486878    0.521301    0.208006     0.006663
NI794   NI        0.487336    0.553730    0.175132     0.004307
NI795   NI        0.518999    0.516707    0.177136     0.004307
NI796   NI        0.519760    0.552826    0.207347     0.004307
CU797   CU        0.552683    0.515180    0.206337     0.006663
NI798   NI        0.550779    0.549625    0.178872     0.004307
NI799   NI        0.585735    0.516175    0.176484     0.004307
NI800   NI        0.586063    0.548544    0.207506     0.004307
NI801   NI        0.616752    0.514104    0.209558     0.004307
NI802   NI        0.619751    0.545032    0.179917     0.004307
NI803   NI        0.651588    0.513195    0.180020     0.004307
NI804   NI        0.650018    0.542810    0.212075     0.004307
CU805   CU        0.684604    0.514881    0.210284     0.006663
NI806   NI        0.660361    0.556316    0.173721     0.004307
CU807   CU        0.734116    0.523665    0.161622     0.006663
CU808   CU        0.735297    0.562535    0.197153     0.006663
NI809   NI        0.769762    0.523539    0.193869     0.004307
NI810   NI        0.766344    0.557263    0.164953     0.004307
CU811   CU        0.799705    0.520742    0.164053     0.006663
NI812   NI        0.801201    0.560456    0.198336     0.004307
CU813   CU        0.831916    0.523450    0.195579     0.006663
NI814   NI        0.045938    0.553405    0.193850     0.004307
NI815   NI        0.111261    0.588386    0.162125     0.004307
NI816   NI        0.080279    0.649279    0.190782     0.004307
NI817   NI        0.143278    0.591578    0.194746     0.004307
CU818   CU        0.143934    0.624986    0.165440     0.006663
CU819   CU        0.174542    0.590737    0.163698     0.006663
CU820   CU        0.174570    0.625758    0.196524     0.006663
NI821   NI        0.207227    0.591650    0.195877     0.004307
CU822   CU        0.209665    0.626428    0.166262     0.006663
CU823   CU        0.241424    0.590169    0.162833     0.006663
NI824   NI        0.246768    0.611332    0.202267     0.004307
NI825   NI        0.286840    0.581872    0.207795     0.004307
NI826   NI        0.278332    0.628573    0.162071     0.004307
NI827   NI        0.319854    0.586159    0.177676     0.004307
NI828   NI        0.321928    0.613747    0.210129     0.004307
CU829   CU        0.353896    0.584992    0.207731     0.006663
NI830   NI        0.347089    0.625909    0.157320     0.004307
NI831   NI        0.381506    0.592312    0.156223     0.004307
NI832   NI        0.385473    0.618303    0.206628     0.004307
CU833   CU        0.419185    0.585278    0.207740     0.006663
NI834   NI        0.418170    0.616471    0.175970     0.004307
NI835   NI        0.449821    0.584398    0.176606     0.004307
NI836   NI        0.449778    0.620721    0.206243     0.004307
CU837   CU        0.487662    0.587067    0.207884     0.006663
NI838   NI        0.489403    0.630433    0.158492     0.004307
NI839   NI        0.522766    0.585440    0.176736     0.004307
NI840   NI        0.521811    0.618286    0.209748     0.004307
CU841   CU        0.553226    0.584050    0.209900     0.006663
NI842   NI        0.560118    0.631595    0.162719     0.004307
NI843   NI        0.593900    0.597731    0.157691     0.004307
NI844   NI        0.596142    0.619015    0.209225     0.004307
CU845   CU        0.619181    0.581497    0.212961     0.006663
NI846   NI        0.628545    0.627202    0.158707     0.004307
NI847   NI        0.662018    0.596314    0.158280     0.004307
NI848   NI        0.659767    0.612255    0.207520     0.004307
NI849   NI        0.691067    0.559336    0.205102     0.004307
NI850   NI        0.696300    0.625545    0.161585     0.004307
NI851   NI        0.731197    0.591848    0.165258     0.004307
NI852   NI        0.703690    0.599281    0.197219     0.004307
NI853   NI        0.769366    0.591553    0.198571     0.004307
NI854   NI        0.737392    0.629024    0.195574     0.004307
NI855   NI        0.798844    0.589565    0.164678     0.004307
NI856   NI        0.802457    0.621365    0.199187     0.004307
NI857   NI        0.864845    0.589811    0.233493     0.004307
NI858   NI        0.140148    0.658009    0.197994     0.004307
NI859   NI        0.176152    0.658074    0.166693     0.004307
NI860   NI        0.171588    0.691867    0.197941     0.004307
NI861   NI        0.206582    0.663434    0.195418     0.004307
NI862   NI        0.208910    0.696591    0.163243     0.004307
NI863   NI        0.243898    0.661446    0.164054     0.004307
NI864   NI        0.245836    0.683897    0.208631     0.004307
NI865   NI        0.283056    0.660742    0.193515     0.004307
NI866   NI        0.279887    0.695673    0.160358     0.004307
NI867   NI        0.313802    0.662441    0.163209     0.004307
NI868   NI        0.312467    0.698055    0.191627     0.004307
CU869   CU        0.350154    0.666053    0.192917     0.006663
CU870   CU        0.346182    0.695713    0.161097     0.006663
CU871   CU        0.381231    0.665629    0.161789     0.006663
NI872   NI        0.380579    0.700538    0.191248     0.004307
NI873   NI        0.417638    0.652093    0.205429     0.004307
NI874   NI        0.416524    0.696552    0.162418     0.004307
NI875   NI        0.456742    0.662631    0.162024     0.004307
NI876   NI        0.454824    0.699903    0.189584     0.004307
NI877   NI        0.489559    0.665067    0.188090     0.004307
NI878   NI        0.488920    0.698961    0.160289     0.004307
NI879   NI        0.524032    0.662014    0.161503     0.004307
NI880   NI        0.524297    0.696653    0.194128     0.004307
NI881   NI        0.559747    0.668009    0.193223     0.004307
NI882   NI        0.559322    0.698355    0.163049     0.004307
NI883   NI        0.593152    0.664809    0.160591     0.004307
CU884   CU        0.591527    0.699121    0.193156     0.006663
NI885   NI        0.629194    0.648787    0.207962     0.004307
CU886   CU        0.624244    0.696650    0.162359     0.006663
NI887   NI        0.662315    0.659400    0.159503     0.004307
NI888   NI        0.665337    0.678101    0.207005     0.004307
NI889   NI        0.696853    0.644612    0.206374     0.004307
NI890   NI        0.693949    0.695660    0.159945     0.004307
NI891   NI        0.726666    0.661842    0.163604     0.004307
NI892   NI        0.710877    0.687842    0.197392     0.004307
NI893   NI        0.769237    0.658863    0.198339     0.004307
NI894   NI        0.206795    0.728466    0.198326     0.004307
NI895   NI        0.245429    0.728678    0.165939     0.004307
CU896   CU        0.245797    0.761863    0.197672     0.006663
NI897   NI        0.282257    0.732725    0.191202     0.004307
NI898   NI        0.282012    0.762501    0.162254     0.004307
NI899   NI        0.315266    0.732250    0.161890     0.004307
NI900   NI        0.314624    0.764895    0.194934     0.004307
CU901   CU        0.346757    0.731908    0.194251     0.006663
NI902   NI        0.348328    0.765543    0.161936     0.004307
CU903   CU        0.381385    0.730294    0.160678     0.006663
CU904   CU        0.382290    0.766805    0.194421     0.006663
NI905   NI        0.415393    0.733972    0.192572     0.004307
NI906   NI        0.416144    0.765007    0.160352     0.004307
NI907   NI        0.450942    0.733792    0.163857     0.004307
NI908   NI        0.451774    0.764627    0.196756     0.004307
NI909   NI        0.489356    0.729818    0.194779     0.004307
NI910   NI        0.486408    0.764883    0.163909     0.004307
NI911   NI        0.522926    0.729715    0.163492     0.004307
NI912   NI        0.519873    0.765466    0.196023     0.004307
NI913   NI        0.556267    0.731208    0.195264     0.004307
NI914   NI        0.557348    0.764175    0.161792     0.004307
CU915   CU        0.592135    0.731681    0.161622     0.006663
CU916   CU        0.590851    0.765143    0.193318     0.006663
NI917   NI        0.624249    0.730930    0.192014     0.004307
NI918   NI        0.625012    0.763971    0.164226     0.004307
CU919   CU        0.659447    0.730750    0.165566     0.006663
NI920   NI        0.657012    0.761596    0.197473     0.004307
NI921   NI        0.697475    0.731213    0.192439     0.004307
NI922   NI        0.277595    0.793125    0.195898     0.004307
NI923   NI        0.314462    0.797816    0.163972     0.004307
NI924   NI        0.311661    0.828270    0.195662     0.004307
NI925   NI        0.346981    0.798073    0.196192     0.004307
NI926   NI        0.381340    0.798624    0.163826     0.004307
NI927   NI        0.383346    0.827731    0.195763     0.004307
NI928   NI        0.418727    0.798328    0.196881     0.004307
NI929   NI        0.417663    0.829380    0.163179     0.004307
NI930   NI        0.452577    0.796807    0.164220     0.004307
CU931   CU        0.454376    0.829562    0.197745     0.006663
NI932   NI        0.486570    0.797166    0.196275     0.004307
NI933   NI        0.486502    0.828176    0.164444     0.004307
NI934   NI        0.521780    0.796701    0.160538     0.004307
NI935   NI        0.520564    0.827426    0.193822     0.004307
NI936   NI        0.555502    0.796683    0.193849     0.004307
NI937   NI        0.591376    0.795491    0.162857     0.004307
NI938   NI        0.591140    0.827395    0.194266     0.004307
NI939   NI        0.624083    0.795277    0.196039     0.004307
NI940   NI        0.247845    0.075001    0.259314     0.004307
NI941   NI        0.281762    0.074511    0.229188     0.004307
NI942   NI        0.314589    0.073241    0.258970     0.004307
NI943   NI        0.350275    0.044448    0.256995     0.004307
NI944   NI        0.349172    0.073203    0.225860     0.004307
NI945   NI        0.383360    0.041485    0.226935     0.004307
NI946   NI        0.383736    0.073036    0.258902     0.004307
NI947   NI        0.418488    0.041115    0.257190     0.004307
NI948   NI        0.416524    0.072924    0.228237     0.004307
NI949   NI        0.453714    0.041348    0.226594     0.004307
CU950   CU        0.452120    0.074462    0.259072     0.006663
CU951   CU        0.489523    0.044409    0.255852     0.006663
CU952   CU        0.488192    0.073726    0.226726     0.006663
NI953   NI        0.525420    0.041633    0.227884     0.004307
NI954   NI        0.529496    0.070568    0.257964     0.004307
NI955   NI        0.563571    0.040057    0.257326     0.004307
NI956   NI        0.560768    0.071337    0.225645     0.004307
NI957   NI        0.593458    0.072050    0.259417     0.004307
NI958   NI        0.631646    0.075036    0.224785     0.004307
NI959   NI        0.664457    0.075727    0.259890     0.004307
NI960   NI        0.177643    0.140148    0.260531     0.004307
NI961   NI        0.211963    0.105323    0.262308     0.004307
NI962   NI        0.210493    0.139597    0.228216     0.004307
NI963   NI        0.247352    0.106650    0.229286     0.004307
NI964   NI        0.248568    0.150303    0.273203     0.004307
NI965   NI        0.281465    0.105761    0.260128     0.004307
CU966   CU        0.283817    0.138188    0.226998     0.006663
NI967   NI        0.317072    0.106318    0.229019     0.004307
NI968   NI        0.312939    0.139297    0.259756     0.004307
CU969   CU        0.349293    0.105781    0.260528     0.006663
NI970   NI        0.350430    0.139216    0.225288     0.004307
CU971   CU        0.382695    0.105474    0.224716     0.006663
CU972   CU        0.382056    0.134459    0.256697     0.006663
NI973   NI        0.418173    0.104260    0.256938     0.004307
CU974   CU        0.416082    0.137303    0.223837     0.006663
NI975   NI        0.451617    0.102886    0.224431     0.004307
NI976   NI        0.455775    0.125943    0.263361     0.004307
CU977   CU        0.493170    0.096849    0.264334     0.006663
NI978   NI        0.487963    0.127384    0.233525     0.004307
NI979   NI        0.524849    0.103608    0.225907     0.004307
NI980   NI        0.525076    0.132014    0.258467     0.004307
NI981   NI        0.561260    0.101238    0.259572     0.004307
CU982   CU        0.562721    0.137549    0.226253     0.006663
CU983   CU        0.594603    0.103636    0.226687     0.006663
CU984   CU        0.596076    0.135897    0.258413     0.006663
CU985   CU        0.630073    0.105005    0.259455     0.006663
NI986   NI        0.627764    0.138915    0.227328     0.004307
NI987   NI        0.662070    0.109341    0.230992     0.004307
NI988   NI        0.660827    0.140883    0.260866     0.004307
CU989   CU        0.695906    0.109517    0.261094     0.006663
NI990   NI        0.697138    0.141136    0.231549     0.004307
NI991   NI        0.730545    0.142231    0.260839     0.004307
NI992   NI        0.108480    0.205536    0.259066     0.004307
NI993   NI        0.139231    0.171722    0.262466     0.004307
NI994   NI        0.144711    0.208196    0.228043     0.004307
NI995   NI        0.176674    0.175251    0.225707     0.004307
CU996   CU        0.173597    0.204270    0.259369     0.006663
NI997   NI        0.207998    0.173070    0.258201     0.004307
NI998   NI        0.210883    0.205653    0.226568     0.004307
CU999   CU        0.244162    0.172357    0.227472     0.006663
CU1000   CU        0.241785    0.201767    0.260782     0.006663
NI1001   NI        0.279454    0.172296    0.255152     0.004307
NI1002   NI        0.283015    0.212943    0.238943     0.004307
NI1003   NI        0.314397    0.171970    0.225846     0.004307
NI1004   NI        0.317576    0.218746    0.268801     0.004307
NI1005   NI        0.355493    0.189645    0.267584     0.004307
NI1006   NI        0.350404    0.203747    0.223926     0.004307
NI1007   NI        0.383868    0.171058    0.223096     0.004307
NI1008   NI        0.389856    0.219190    0.267047     0.004307
NI1009   NI        0.421833    0.185193    0.266878     0.004307
NI1010   NI        0.417145    0.204584    0.224322     0.004307
NI1011   NI        0.454508    0.188072    0.238730     0.004307
CU1012   CU        0.453475    0.220186    0.267595     0.006663
NI1013   NI        0.488042    0.186495    0.267873     0.004307
CU1014   CU        0.489777    0.217665    0.238978     0.006663
NI1015   NI        0.521683    0.182463    0.237741     0.004307
NI1016   NI        0.519334    0.219077    0.270055     0.004307
NI1017   NI        0.553744    0.187282    0.269486     0.004307
NI1018   NI        0.558735    0.201879    0.222291     0.004307
CU1019   CU        0.596045    0.170654    0.225257     0.006663
NI1020   NI        0.587339    0.220832    0.268942     0.004307
NI1021   NI        0.626848    0.170682    0.258058     0.004307
CU1022   CU        0.629362    0.203448    0.226646     0.006663
CU1023   CU        0.664013    0.173690    0.227737     0.006663
NI1024   NI        0.662263    0.205400    0.258099     0.004307
CU1025   CU        0.695834    0.176112    0.261384     0.006663
CU1026   CU        0.698374    0.205630    0.227735     0.006663
NI1027   NI        0.730459    0.174754    0.229081     0.004307
NI1028   NI        0.732158    0.206351    0.259065     0.004307
CU1029   CU        0.762666    0.172792    0.262246     0.006663
NI1030   NI        0.764012    0.206579    0.231114     0.004307
NI1031   NI        0.797512    0.211108    0.265267     0.004307
NI1032   NI        0.074908    0.241059    0.257675     0.004307
NI1033   NI        0.076006    0.274417    0.228137     0.004307
NI1034   NI        0.110214    0.240533    0.227333     0.004307
CU1035   CU        0.107187    0.273854    0.260444     0.006663
NI1036   NI        0.141935    0.240209    0.259081     0.004307
NI1037   NI        0.139573    0.275900    0.229773     0.004307
CU1038   CU        0.177773    0.237990    0.229160     0.006663
CU1039   CU        0.173578    0.270551    0.260166     0.006663
NI1040   NI        0.209456    0.237387    0.261845     0.004307
NI1041   NI        0.211385    0.281729    0.234687     0.004307
NI1042   NI        0.248831    0.245601    0.243452     0.004307
NI1043   NI        0.253500    0.283510    0.268093     0.004307
NI1044   NI        0.283875    0.249512    0.268690     0.004307
NI1045   NI        0.287302    0.285954    0.238110     0.004307
NI1046   NI        0.316400    0.251903    0.236377     0.004307
CU1047   CU        0.319062    0.282557    0.267997     0.006663
NI1048   NI        0.352980    0.251449    0.269498     0.004307
NI1049   NI        0.349711    0.283925    0.236298     0.004307
CU1050   CU        0.385014    0.254333    0.238556     0.006663
NI1051   NI        0.386788    0.286009    0.269377     0.004307
NI1052   NI        0.421040    0.253612    0.269056     0.004307
CU1053   CU        0.417618    0.286026    0.238901     0.006663
NI1054   NI        0.449761    0.236747    0.225996     0.004307
NI1055   NI        0.452670    0.284238    0.267655     0.004307
NI1056   NI        0.488048    0.250458    0.269181     0.004307
CU1057   CU        0.486357    0.286029    0.235593     0.006663
CU1058   CU        0.521061    0.252409    0.238947     0.006663
CU1059   CU        0.517803    0.286425    0.266636     0.006663
NI1060   NI        0.553711    0.251239    0.269613     0.004307
CU1061   CU        0.555235    0.282378    0.238518     0.006663
NI1062   NI        0.587499    0.251817    0.238075     0.004307
NI1063   NI        0.587440    0.285379    0.268906     0.004307
NI1064   NI        0.621132    0.253479    0.265612     0.004307
NI1065   NI        0.621361    0.284880    0.236344     0.004307
NI1066   NI        0.650783    0.247198    0.234180     0.004307
NI1067   NI        0.654176    0.285389    0.264121     0.004307
NI1068   NI        0.694429    0.239767    0.255975     0.004307
NI1069   NI        0.686656    0.284452    0.235360     0.004307
NI1070   NI        0.732431    0.240801    0.228975     0.004307
NI1071   NI        0.721440    0.284769    0.264927     0.004307
NI1072   NI        0.767099    0.242929    0.260742     0.004307
NI1073   NI        0.754529    0.280110    0.232330     0.004307
NI1074   NI        0.799434    0.239945    0.231746     0.004307
NI1075   NI        0.802493    0.274698    0.264131     0.004307
NI1076   NI        0.833239    0.241907    0.263370     0.004307
NI1077   NI        0.833364    0.277678    0.233300     0.004307
NI1078   NI        0.045810    0.342108    0.258649     0.004307
NI1079   NI        0.076548    0.307534    0.257847     0.004307
CU1080   CU        0.076387    0.344182    0.227250     0.006663
CU1081   CU        0.109883    0.309816    0.228756     0.006663
NI1082   NI        0.106454    0.341844    0.260321     0.004307
CU1083   CU        0.139984    0.311997    0.259927     0.006663
NI1084   NI        0.139165    0.344714    0.225039     0.004307
CU1085   CU        0.170888    0.308095    0.231993     0.006663
NI1086   NI        0.179316    0.343263    0.261102     0.004307
CU1087   CU        0.217037    0.316231    0.266588     0.006663
NI1088   NI        0.219627    0.351173    0.237432     0.004307
CU1089   CU        0.249690    0.315826    0.236197     0.006663
NI1090   NI        0.251937    0.349054    0.268139     0.004307
NI1091   NI        0.287242    0.318196    0.267245     0.004307
NI1092   NI        0.283006    0.348376    0.234790     0.004307
NI1093   NI        0.319854    0.317708    0.235921     0.004307
NI1094   NI        0.317798    0.349826    0.267143     0.004307
CU1095   CU        0.351118    0.315615    0.267513     0.006663
CU1096   CU        0.353739    0.352053    0.236719     0.006663
CU1097   CU        0.386434    0.319656    0.237016     0.006663
NI1098   NI        0.387183    0.351050    0.267886     0.004307
CU1099   CU        0.420524    0.319441    0.268166     0.006663
CU1100   CU        0.420487    0.353323    0.236902     0.006663
CU1101   CU        0.453041    0.317438    0.236270     0.006663
CU1102   CU        0.453650    0.350428    0.267455     0.006663
CU1103   CU        0.485804    0.317223    0.268006     0.006663
CU1104   CU        0.487166    0.350442    0.234714     0.006663
CU1105   CU        0.520655    0.317076    0.235083     0.006663
CU1106   CU        0.518798    0.350139    0.268236     0.006663
NI1107   NI        0.552637    0.319796    0.267758     0.004307
CU1108   CU        0.551861    0.351046    0.236688     0.006663
NI1109   NI        0.586894    0.317835    0.237538     0.004307
NI1110   NI        0.586722    0.349444    0.269058     0.004307
CU1111   CU        0.621883    0.318229    0.266318     0.006663
CU1112   CU        0.622865    0.352649    0.235355     0.006663
NI1113   NI        0.654068    0.318825    0.234461     0.004307
NI1114   NI        0.655820    0.352130    0.269066     0.004307
NI1115   NI        0.689123    0.319467    0.265439     0.004307
NI1116   NI        0.689737    0.352508    0.233277     0.004307
CU1117   CU        0.724470    0.314971    0.229746     0.006663
CU1118   CU        0.723723    0.349010    0.263107     0.006663
NI1119   NI        0.755734    0.314354    0.261904     0.004307
NI1120   NI        0.757414    0.343170    0.227270     0.004307
NI1121   NI        0.796805    0.316768    0.236676     0.004307
NI1122   NI        0.795782    0.341995    0.272272     0.004307
NI1123   NI        0.832461    0.309634    0.264624     0.004307
NI1124   NI        0.833966    0.347788    0.226869     0.004307
NI1125   NI        0.860273    0.345512    0.262388     0.004307
NI1126   NI        0.045902    0.377446    0.225656     0.004307
NI1127   NI        0.011123    0.455047    0.256329     0.004307
CU1128   CU        0.077283    0.376104    0.258819     0.006663
NI1129   NI        0.076050    0.414679    0.224874     0.004307
NI1130   NI        0.107040    0.378026    0.224433     0.004307
NI1131   NI        0.099019    0.416315    0.260700     0.004307
NI1132   NI        0.150933    0.383175    0.270292     0.004307
NI1133   NI        0.136603    0.414684    0.221674     0.004307
NI1134   NI        0.185824    0.383234    0.238121     0.004307
NI1135   NI        0.183986    0.416540    0.268072     0.004307
NI1136   NI        0.218299    0.382611    0.265485     0.004307
NI1137   NI        0.217550    0.413966    0.234796     0.004307
CU1138   CU        0.250534    0.383064    0.235092     0.006663
CU1139   CU        0.249549    0.416946    0.265998     0.006663
CU1140   CU        0.284514    0.381285    0.264041     0.006663
CU1141   CU        0.283245    0.417070    0.235935     0.006663
CU1142   CU        0.319380    0.384131    0.233152     0.006663
CU1143   CU        0.319582    0.416309    0.264994     0.006663
CU1144   CU        0.353388    0.383824    0.268530     0.006663
CU1145   CU        0.352371    0.419159    0.236753     0.006663
CU1146   CU        0.387169    0.384590    0.238695     0.006663
CU1147   CU        0.387872    0.418142    0.268869     0.006663
CU1148   CU        0.419850    0.382348    0.268789     0.006663
CU1149   CU        0.421942    0.416356    0.237058     0.006663
CU1150   CU        0.453206    0.383819    0.236264     0.006663
CU1151   CU        0.452448    0.416592    0.267435     0.006663
NI1152   NI        0.487379    0.384102    0.269089     0.004307
CU1153   CU        0.487378    0.417576    0.236253     0.006663
CU1154   CU        0.520098    0.384776    0.236030     0.006663
CU1155   CU        0.519759    0.417624    0.267230     0.006663
CU1156   CU        0.553076    0.385083    0.268725     0.006663
NI1157   NI        0.552318    0.416103    0.236214     0.004307
CU1158   CU        0.586840    0.385315    0.236775     0.006663
CU1159   CU        0.587124    0.417250    0.267525     0.006663
CU1160   CU        0.620623    0.385732    0.268409     0.006663
NI1161   NI        0.619219    0.419113    0.235025     0.004307
NI1162   NI        0.656060    0.387887    0.236368     0.004307
NI1163   NI        0.655440    0.416461    0.269188     0.004307
NI1164   NI        0.689213    0.383786    0.267692     0.004307
CU1165   CU        0.688701    0.421739    0.237761     0.006663
NI1166   NI        0.719532    0.389516    0.237371     0.004307
CU1167   CU        0.722222    0.419385    0.268933     0.006663
NI1168   NI        0.751882    0.386633    0.267370     0.004307
NI1169   NI        0.756617    0.420497    0.237641     0.004307
NI1170   NI        0.803823    0.381656    0.226945     0.004307
NI1171   NI        0.799367    0.419615    0.261335     0.004307
NI1172   NI        0.830168    0.384712    0.261501     0.004307
CU1173   CU        0.834491    0.418698    0.226723     0.006663
NI1174   NI        0.864709    0.378649    0.231426     0.004307
CU1175   CU        0.866177    0.418238    0.260486     0.006663
CU1176   CU        0.046023    0.452135    0.228321     0.006663
NI1177   NI        0.043359    0.486431    0.257609     0.004307
CU1178   CU        0.077055    0.456174    0.259103     0.006663
NI1179   NI        0.075794    0.486322    0.229261     0.004307
NI1180   NI        0.107790    0.450503    0.225054     0.004307
NI1181   NI        0.108121    0.490125    0.257185     0.004307
NI1182   NI        0.152550    0.448543    0.266683     0.004307
NI1183   NI        0.136983    0.485097    0.223620     0.004307
NI1184   NI        0.187100    0.450621    0.239320     0.004307
NI1185   NI        0.185386    0.483603    0.267554     0.004307
NI1186   NI        0.220146    0.451561    0.269310     0.004307
NI1187   NI        0.218559    0.482715    0.237672     0.004307
CU1188   CU        0.249910    0.450138    0.236059     0.006663
CU1189   CU        0.253197    0.484748    0.266520     0.006663
CU1190   CU        0.283757    0.448030    0.268648     0.006663
NI1191   NI        0.284940    0.482004    0.235366     0.004307
CU1192   CU        0.319957    0.451381    0.235499     0.006663
CU1193   CU        0.320677    0.483997    0.267243     0.006663
CU1194   CU        0.353991    0.450456    0.267766     0.006663
CU1195   CU        0.353435    0.484647    0.235509     0.006663
NI1196   NI        0.385582    0.450238    0.236884     0.004307
CU1197   CU        0.386800    0.483924    0.269509     0.006663
CU1198   CU        0.421472    0.451772    0.267283     0.006663
CU1199   CU        0.417340    0.484483    0.236631     0.006663
CU1200   CU        0.452947    0.451267    0.237074     0.006663
CU1201   CU        0.452759    0.486101    0.267965     0.006663
CU1202   CU        0.488433    0.452782    0.269261     0.006663
CU1203   CU        0.486876    0.485081    0.237318     0.006663
CU1204   CU        0.520826    0.449569    0.238012     0.006663
CU1205   CU        0.522104    0.484379    0.270065     0.006663
CU1206   CU        0.553177    0.450161    0.268593     0.006663
NI1207   NI        0.552220    0.482950    0.237335     0.004307
NI1208   NI        0.584951    0.448299    0.240054     0.004307
CU1209   CU        0.584320    0.482361    0.270846     0.006663
CU1210   CU        0.620124    0.449286    0.268298     0.006663
NI1211   NI        0.616929    0.481570    0.240163     0.004307
NI1212   NI        0.653553    0.450804    0.237331     0.004307
CU1213   CU        0.652412    0.480530    0.271434     0.006663
NI1214   NI        0.688141    0.451198    0.271328     0.004307
CU1215   CU        0.685779    0.479690    0.238431     0.006663
NI1216   NI        0.723942    0.450254    0.238854     0.004307
CU1217   CU        0.721192    0.481463    0.268621     0.006663
NI1218   NI        0.756411    0.451739    0.266880     0.004307
NI1219   NI        0.753813    0.485229    0.237911     0.004307
NI1220   NI        0.801227    0.449863    0.229238     0.004307
NI1221   NI        0.808537    0.484574    0.263629     0.004307
CU1222   CU        0.835850    0.450785    0.261003     0.006663
NI1223   NI        0.834500    0.488583    0.227722     0.004307
NI1224   NI        0.863489    0.453282    0.228905     0.004307
NI1225   NI        0.863259    0.484809    0.262536     0.004307
NI1226   NI        0.043420    0.522270    0.227106     0.004307
NI1227   NI        0.041778    0.554280    0.260238     0.004307
NI1228   NI        0.074058    0.521261    0.259283     0.004307
NI1229   NI        0.077081    0.552067    0.228501     0.004307
NI1230   NI        0.108885    0.521500    0.226190     0.004307
NI1231   NI        0.107079    0.557840    0.257997     0.004307
CU1232   CU        0.139566    0.523530    0.258114     0.006663
NI1233   NI        0.139235    0.555056    0.226144     0.004307
NI1234   NI        0.190171    0.519902    0.235285     0.004307
NI1235   NI        0.181156    0.547677    0.269427     0.004307
NI1236   NI        0.218766    0.515715    0.268973     0.004307
NI1237   NI        0.222227    0.548667    0.239545     0.004307
CU1238   CU        0.254001    0.515963    0.236486     0.006663
CU1239   CU        0.252137    0.548102    0.268808     0.006663
NI1240   NI        0.286404    0.516726    0.267382     0.004307
CU1241   CU        0.285358    0.549875    0.238028     0.006663
CU1242   CU        0.318149    0.515563    0.237313     0.006663
NI1243   NI        0.320492    0.549816    0.267615     0.004307
CU1244   CU        0.354089    0.517923    0.266184     0.006663
CU1245   CU        0.352786    0.549723    0.237004     0.006663
CU1246   CU        0.387142    0.517470    0.237181     0.006663
NI1247   NI        0.384214    0.551926    0.268716     0.004307
CU1248   CU        0.421111    0.521490    0.266729     0.006663
CU1249   CU        0.419252    0.553285    0.236255     0.006663
CU1250   CU        0.451934    0.519660    0.235731     0.006663
CU1251   CU        0.452630    0.555181    0.269111     0.006663
CU1252   CU        0.488149    0.519095    0.268021     0.006663
CU1253   CU        0.486739    0.552503    0.238401     0.006663
CU1254   CU        0.520514    0.517380    0.237366     0.006663
NI1255   NI        0.519035    0.553015    0.269527     0.004307
CU1256   CU        0.552959    0.519185    0.270071     0.006663
CU1257   CU        0.554519    0.551565    0.238549     0.006663
CU1258   CU        0.583956    0.515396    0.239750     0.006663
CU1259   CU        0.584464    0.550149    0.271068     0.006663
NI1260   NI        0.618282    0.515495    0.270383     0.004307
NI1261   NI        0.617153    0.549446    0.241816     0.004307
CU1262   CU        0.652233    0.510765    0.242037     0.006663
NI1263   NI        0.650049    0.549229    0.272390     0.004307
CU1264   CU        0.684666    0.513302    0.271448     0.006663
NI1265   NI        0.681212    0.543623    0.243368     0.004307
NI1266   NI        0.717011    0.515101    0.240585     0.004307
NI1267   NI        0.714608    0.547770    0.272533     0.004307
NI1268   NI        0.750737    0.514004    0.270755     0.004307
NI1269   NI        0.770282    0.558161    0.227288     0.004307
CU1270   CU        0.803726    0.522744    0.226560     0.006663
NI1271   NI        0.805001    0.559467    0.262497     0.004307
CU1272   CU        0.836099    0.523001    0.264433     0.006663
NI1273   NI        0.833612    0.556937    0.230636     0.004307
NI1274   NI        0.863773    0.522392    0.227612     0.004307
NI1275   NI        0.863527    0.557793    0.264096     0.004307
NI1276   NI        0.075174    0.591146    0.261253     0.004307
CU1277   CU        0.079311    0.625015    0.228622     0.006663
NI1278   NI        0.109502    0.589311    0.228307     0.004307
NI1279   NI        0.104673    0.626739    0.261471     0.004307
NI1280   NI        0.139956    0.593683    0.260415     0.004307
NI1281   NI        0.140389    0.626111    0.231373     0.004307
NI1282   NI        0.173581    0.592658    0.226744     0.004307
CU1283   CU        0.176579    0.625145    0.258381     0.006663
NI1284   NI        0.218682    0.581490    0.269534     0.004307
NI1285   NI        0.216454    0.613194    0.234581     0.004307
NI1286   NI        0.252643    0.583322    0.238870     0.004307
CU1287   CU        0.248362    0.616734    0.266946     0.006663
CU1288   CU        0.285526    0.583834    0.267880     0.006663
NI1289   NI        0.283136    0.615038    0.236689     0.004307
CU1290   CU        0.317792    0.580794    0.238038     0.006663
CU1291   CU        0.319912    0.615021    0.269966     0.006663
NI1292   NI        0.352924    0.583715    0.266930     0.004307
CU1293   CU        0.353775    0.617048    0.238776     0.006663
CU1294   CU        0.387931    0.586709    0.236946     0.006663
CU1295   CU        0.387775    0.617086    0.269744     0.006663
CU1296   CU        0.420209    0.584796    0.267114     0.006663
NI1297   NI        0.419718    0.617994    0.237579     0.004307
CU1298   CU        0.452443    0.584335    0.235804     0.006663
CU1299   CU        0.451404    0.617380    0.268806     0.006663
NI1300   NI        0.485639    0.585398    0.269286     0.004307
CU1301   CU        0.485576    0.618585    0.237859     0.006663
CU1302   CU        0.519858    0.586018    0.239828     0.006663
NI1303   NI        0.520369    0.618027    0.270608     0.004307
CU1304   CU        0.552244    0.582946    0.270842     0.006663
NI1305   NI        0.556379    0.619504    0.236187     0.004307
CU1306   CU        0.586835    0.584150    0.240059     0.006663
NI1307   NI        0.588587    0.617559    0.269913     0.004307
CU1308   CU        0.616322    0.583553    0.271905     0.006663
NI1309   NI        0.625727    0.615509    0.238924     0.004307
NI1310   NI        0.655216    0.580854    0.240107     0.004307
NI1311   NI        0.658780    0.616957    0.268779     0.004307
CU1312   CU        0.688868    0.582799    0.271440     0.006663
CU1313   CU        0.692654    0.613330    0.239620     0.006663
CU1314   CU        0.734748    0.595581    0.229041     0.006663
NI1315   NI        0.726310    0.610907    0.267924     0.004307
NI1316   NI        0.770771    0.593149    0.260608     0.004307
NI1317   NI        0.768940    0.626511    0.227570     0.004307
NI1318   NI        0.802784    0.592733    0.232135     0.004307
NI1319   NI        0.801847    0.627759    0.260284     0.004307
NI1320   NI        0.834443    0.591779    0.264446     0.004307
CU1321   CU        0.832247    0.625737    0.230802     0.006663
NI1322   NI        0.075563    0.662492    0.264043     0.004307
NI1323   NI        0.108079    0.660221    0.232791     0.004307
NI1324   NI        0.107920    0.696107    0.263873     0.004307
NI1325   NI        0.139834    0.660444    0.267478     0.004307
NI1326   NI        0.142513    0.693402    0.231168     0.004307
CU1327   CU        0.170526    0.659732    0.229252     0.006663
NI1328   NI        0.174842    0.692366    0.261362     0.004307
CU1329   CU        0.215421    0.648246    0.263608     0.006663
CU1330   CU        0.204398    0.692968    0.226461     0.006663
NI1331   NI        0.248469    0.647421    0.235045     0.004307
NI1332   NI        0.240518    0.689510    0.250692     0.004307
CU1333   CU        0.282687    0.646522    0.268730     0.006663
NI1334   NI        0.280561    0.677197    0.237014     0.004307
NI1335   NI        0.315220    0.647107    0.240081     0.004307
CU1336   CU        0.316634    0.677794    0.268740     0.006663
NI1337   NI        0.352739    0.647962    0.268190     0.004307
NI1338   NI        0.346282    0.699683    0.224147     0.004307
NI1339   NI        0.387688    0.647834    0.238928     0.004307
NI1340   NI        0.382786    0.682174    0.264882     0.004307
NI1341   NI        0.420340    0.649184    0.268754     0.004307
NI1342   NI        0.416459    0.685007    0.237513     0.004307
CU1343   CU        0.451234    0.651452    0.238264     0.006663
NI1344   NI        0.455259    0.681967    0.270333     0.004307
CU1345   CU        0.485917    0.648659    0.267745     0.006663
CU1346   CU        0.488380    0.684462    0.240779     0.006663
NI1347   NI        0.520871    0.651326    0.239858     0.004307
NI1348   NI        0.526235    0.699524    0.262186     0.004307
NI1349   NI        0.554014    0.650187    0.272051     0.004307
NI1350   NI        0.558528    0.698726    0.224567     0.004307
NI1351   NI        0.595002    0.652608    0.238282     0.004307
NI1352   NI        0.596746    0.688341    0.267364     0.004307
NI1353   NI        0.625845    0.651448    0.269132     0.004307
NI1354   NI        0.632096    0.680058    0.236738     0.004307
CU1355   CU        0.662274    0.646947    0.238407     0.006663
NI1356   NI        0.662561    0.681394    0.266216     0.004307
NI1357   NI        0.694861    0.648660    0.269090     0.004307
NI1358   NI        0.698211    0.677124    0.236797     0.004307
NI1359   NI        0.728877    0.641582    0.238600     0.004307
CU1360   CU        0.728943    0.680068    0.266751     0.006663
NI1361   NI        0.770990    0.661458    0.259217     0.004307
NI1362   NI        0.742862    0.680617    0.225438     0.004307
NI1363   NI        0.801611    0.659849    0.229992     0.004307
NI1364   NI        0.804282    0.692040    0.266913     0.004307
NI1365   NI        0.832625    0.659517    0.267313     0.004307
NI1366   NI        0.143416    0.724944    0.263107     0.004307
CU1367   CU        0.174813    0.726611    0.230608     0.006663
NI1368   NI        0.174219    0.762805    0.264800     0.004307
NI1369   NI        0.206543    0.730269    0.262566     0.004307
NI1370   NI        0.206493    0.761901    0.231496     0.004307
CU1371   CU        0.266795    0.718469    0.226581     0.006663
CU1372   CU        0.241660    0.763388    0.260955     0.006663
NI1373   NI        0.280221    0.735820    0.264187     0.004307
NI1374   NI        0.277809    0.763680    0.230035     0.004307
NI1375   NI        0.313698    0.730109    0.229836     0.004307
NI1376   NI        0.312408    0.767448    0.260017     0.004307
CU1377   CU        0.348243    0.732515    0.258755     0.006663
NI1378   NI        0.347864    0.764876    0.226325     0.004307
NI1379   NI        0.382305    0.732771    0.226877     0.004307
NI1380   NI        0.381394    0.765930    0.260043     0.004307
NI1381   NI        0.416902    0.732777    0.261153     0.004307
NI1382   NI        0.417080    0.764912    0.225102     0.004307
NI1383   NI        0.452862    0.733355    0.225267     0.004307
CU1384   CU        0.454869    0.765573    0.260020     0.006663
CU1385   CU        0.490236    0.732756    0.256241     0.006663
NI1386   NI        0.489605    0.762657    0.227823     0.004307
NI1387   NI        0.524916    0.731832    0.225924     0.004307
CU1388   CU        0.524096    0.763848    0.258785     0.006663
NI1389   NI        0.557045    0.732773    0.257453     0.004307
NI1390   NI        0.556301    0.767232    0.226087     0.004307
NI1391   NI        0.590367    0.731120    0.224537     0.004307
CU1392   CU        0.602567    0.753307    0.262285     0.006663
NI1393   NI        0.632174    0.716118    0.265074     0.004307
NI1394   NI        0.623438    0.764302    0.227316     0.004307
NI1395   NI        0.664070    0.712622    0.236884     0.004307
NI1396   NI        0.668703    0.754646    0.264743     0.004307
NI1397   NI        0.697272    0.714910    0.264579     0.004307
NI1398   NI        0.708330    0.755534    0.246302     0.004307
NI1399   NI        0.722013    0.717467    0.228064     0.004307
NI1400   NI        0.738866    0.768988    0.271165     0.004307
NI1401   NI        0.761156    0.706834    0.258453     0.004307
NI1402   NI        0.209134    0.794845    0.262708     0.004307
NI1403   NI        0.243182    0.793340    0.229798     0.004307
NI1404   NI        0.240095    0.828231    0.259502     0.004307
NI1405   NI        0.277331    0.796695    0.262048     0.004307
NI1406   NI        0.278347    0.824125    0.228807     0.004307
NI1407   NI        0.313441    0.799170    0.227106     0.004307
CU1408   CU        0.312128    0.829281    0.258588     0.006663
NI1409   NI        0.347984    0.799391    0.259817     0.004307
NI1410   NI        0.345659    0.831617    0.226044     0.004307
CU1411   CU        0.381937    0.799091    0.226851     0.006663
NI1412   NI        0.383359    0.829519    0.262613     0.004307
NI1413   NI        0.415628    0.796006    0.259292     0.004307
NI1414   NI        0.417512    0.829226    0.226596     0.004307
NI1415   NI        0.452575    0.797214    0.228689     0.004307
NI1416   NI        0.452150    0.830711    0.260746     0.004307
NI1417   NI        0.487533    0.796154    0.261839     0.004307
CU1418   CU        0.487290    0.830905    0.229137     0.006663
NI1419   NI        0.520193    0.798056    0.229030     0.004307
NI1420   NI        0.522244    0.829907    0.263786     0.004307
CU1421   CU        0.557253    0.795832    0.259530     0.006663
NI1422   NI        0.556277    0.827827    0.228940     0.004307
NI1423   NI        0.591468    0.797660    0.228639     0.004307
CU1424   CU        0.591816    0.828489    0.260992     0.006663
NI1425   NI        0.638281    0.789059    0.262569     0.004307
NI1426   NI        0.625345    0.832373    0.222197     0.004307
CU1427   CU        0.654058    0.797025    0.224863     0.006663
CU1428   CU        0.668259    0.823446    0.263404     0.006663
NI1429   NI        0.699589    0.793624    0.268346     0.004307
NI1430   NI        0.347789    0.859424    0.260280     0.004307
NI1431   NI        0.381859    0.861994    0.231324     0.004307
CU1432   CU        0.418079    0.859889    0.262086     0.006663
NI1433   NI        0.454382    0.861616    0.230128     0.004307
CU1434   CU        0.489507    0.858248    0.263940     0.006663
CU1435   CU        0.523661    0.863260    0.231932     0.006663
NI1436   NI        0.559020    0.859222    0.259043     0.004307
NI1437   NI        0.381960    0.009639    0.324093     0.004307
NI1438   NI        0.416780    0.009440    0.293191     0.004307
NI1439   NI        0.452429    0.012635    0.320965     0.004307
NI1440   NI        0.492374    0.000667    0.301831     0.004307
NI1441   NI        0.526786    0.003965    0.331310     0.004307
NI1442   NI        0.216755    0.075298    0.292555     0.004307
NI1443   NI        0.242596    0.071708    0.326797     0.004307
NI1444   NI        0.280024    0.041739    0.325688     0.004307
NI1445   NI        0.279530    0.074207    0.290292     0.004307
NI1446   NI        0.313772    0.041801    0.292544     0.004307
NI1447   NI        0.314379    0.071896    0.322904     0.004307
NI1448   NI        0.347129    0.040885    0.325130     0.004307
CU1449   CU        0.348100    0.072572    0.290081     0.006663
NI1450   NI        0.383672    0.040744    0.292285     0.004307
CU1451   CU        0.383686    0.070901    0.324363     0.006663
NI1452   NI        0.417924    0.042400    0.322553     0.004307
NI1453   NI        0.416195    0.073841    0.290218     0.004307
NI1454   NI        0.449583    0.042516    0.289036     0.004307
NI1455   NI        0.457265    0.065414    0.326874     0.004307
NI1456   NI        0.492514    0.038020    0.329208     0.004307
NI1457   NI        0.490588    0.064692    0.294157     0.004307
NI1458   NI        0.525758    0.033772    0.300269     0.004307
NI1459   NI        0.526864    0.070075    0.326233     0.004307
CU1460   CU        0.559758    0.039485    0.327486     0.006663
NI1461   NI        0.560529    0.068241    0.291408     0.004307
NI1462   NI        0.593115    0.038700    0.292673     0.004307
NI1463   NI        0.597294    0.069378    0.324995     0.004307
NI1464   NI        0.632121    0.040493    0.325295     0.004307
NI1465   NI        0.630935    0.073555    0.294001     0.004307
CU1466   CU        0.665663    0.071630    0.324585     0.006663
NI1467   NI        0.695928    0.074389    0.292704     0.004307
NI1468   NI        0.110975    0.139237    0.324006     0.004307
NI1469   NI        0.145564    0.109543    0.326036     0.004307
CU1470   CU        0.144978    0.140694    0.292395     0.006663
NI1471   NI        0.176996    0.105384    0.292573     0.004307
CU1472   CU        0.176227    0.140648    0.326865     0.006663
NI1473   NI        0.208877    0.106796    0.325752     0.004307
NI1474   NI        0.208266    0.137237    0.291172     0.004307
NI1475   NI        0.246379    0.107183    0.291294     0.004307
NI1476   NI        0.242254    0.134255    0.328140     0.004307
NI1477   NI        0.276411    0.102218    0.325594     0.004307
NI1478   NI        0.283248    0.136369    0.293348     0.004307
CU1479   CU        0.314529    0.102900    0.290645     0.006663
NI1480   NI        0.314081    0.131569    0.325195     0.004307
NI1481   NI        0.348898    0.102161    0.325614     0.004307
NI1482   NI        0.344660    0.134825    0.292513     0.004307
NI1483   NI        0.381862    0.103275    0.291181     0.004307
NI1484   NI        0.384997    0.129651    0.328404     0.004307
NI1485   NI        0.420746    0.098476    0.327644     0.004307
NI1486   NI        0.422236    0.150681    0.298637     0.004307
NI1487   NI        0.453665    0.095297    0.296110     0.004307
NI1488   NI        0.453974    0.152913    0.329772     0.004307
NI1489   NI        0.491017    0.097533    0.325519     0.004307
NI1490   NI        0.483681    0.151454    0.295487     0.004307
NI1491   NI        0.529647    0.099647    0.293272     0.004307
NI1492   NI        0.527715    0.130583    0.325460     0.004307
NI1493   NI        0.562889    0.100043    0.325460     0.004307
NI1494   NI        0.560632    0.132724    0.293042     0.004307
NI1495   NI        0.596849    0.102851    0.293578     0.004307
NI1496   NI        0.594771    0.132826    0.325298     0.004307
CU1497   CU        0.630032    0.103978    0.324978     0.006663
CU1498   CU        0.629485    0.136280    0.291022     0.006663
NI1499   NI        0.663529    0.106819    0.293700     0.004307
NI1500   NI        0.664292    0.137915    0.323777     0.004307
NI1501   NI        0.698235    0.107120    0.327257     0.004307
NI1502   NI        0.697018    0.140469    0.292306     0.004307
NI1503   NI        0.729861    0.110002    0.291813     0.004307
NI1504   NI        0.732650    0.137382    0.324976     0.004307
NI1505   NI        0.762422    0.105721    0.321494     0.004307
NI1506   NI        0.764338    0.139687    0.293135     0.004307
NI1507   NI        0.797189    0.136958    0.322498     0.004307
NI1508   NI        0.077046    0.206161    0.293263     0.004307
NI1509   NI        0.109626    0.174352    0.293148     0.004307
NI1510   NI        0.108273    0.205528    0.326000     0.004307
NI1511   NI        0.143094    0.172457    0.326771     0.004307
CU1512   CU        0.141965    0.205200    0.291101     0.006663
CU1513   CU        0.175835    0.173816    0.292482     0.006663
NI1514   NI        0.171859    0.205619    0.326553     0.004307
CU1515   CU        0.211043    0.171282    0.321876     0.006663
NI1516   NI        0.205622    0.205742    0.291445     0.004307
NI1517   NI        0.248280    0.187453    0.298840     0.004307
NI1518   NI        0.253371    0.219161    0.331110     0.004307
NI1519   NI        0.283518    0.184596    0.330187     0.004307
NI1520   NI        0.287015    0.219398    0.300273     0.004307
NI1521   NI        0.319819    0.187700    0.301085     0.004307
CU1522   CU        0.318900    0.216346    0.330563     0.006663
NI1523   NI        0.355650    0.186100    0.329701     0.004307
CU1524   CU        0.353684    0.217244    0.298994     0.006663
CU1525   CU        0.390080    0.185356    0.297156     0.006663
CU1526   CU        0.388241    0.217281    0.328386     0.006663
NI1527   NI        0.421362    0.183880    0.328644     0.004307
NI1528   NI        0.421384    0.218170    0.299020     0.004307
NI1529   NI        0.455678    0.187727    0.297689     0.004307
CU1530   CU        0.455126    0.218047    0.330691     0.006663
NI1531   NI        0.487578    0.182691    0.330288     0.004307
CU1532   CU        0.488543    0.217975    0.300338     0.006663
NI1533   NI        0.520297    0.185879    0.297570     0.004307
CU1534   CU        0.521927    0.215325    0.330042     0.006663
NI1535   NI        0.563088    0.164433    0.325210     0.004307
CU1536   CU        0.553407    0.219220    0.297987     0.006663
NI1537   NI        0.594315    0.164907    0.293594     0.004307
NI1538   NI        0.587287    0.219487    0.330996     0.004307
CU1539   CU        0.630471    0.167348    0.323226     0.006663
CU1540   CU        0.626774    0.198891    0.291161     0.006663
NI1541   NI        0.663268    0.172290    0.293358     0.004307
NI1542   NI        0.669111    0.199794    0.328263     0.004307
NI1543   NI        0.700590    0.168463    0.326671     0.004307
CU1544   CU        0.685618    0.220417    0.292598     0.006663
NI1545   NI        0.731823    0.174246    0.293775     0.004307
NI1546   NI        0.733259    0.203291    0.327041     0.004307
NI1547   NI        0.766213    0.171021    0.324639     0.004307
NI1548   NI        0.764764    0.207371    0.295319     0.004307
NI1549   NI        0.797484    0.175203    0.295527     0.004307
CU1550   CU        0.801235    0.208473    0.328258     0.006663
NI1551   NI        0.831351    0.209879    0.295235     0.004307
NI1552   NI        0.043038    0.274029    0.325289     0.004307
NI1553   NI        0.074701    0.240319    0.327990     0.004307
NI1554   NI        0.075483    0.275511    0.293811     0.004307
NI1555   NI        0.108922    0.238637    0.289766     0.004307
CU1556   CU        0.107404    0.273423    0.325941     0.006663
CU1557   CU        0.139949    0.238943    0.323212     0.006663
NI1558   NI        0.142464    0.271821    0.289936     0.004307
CU1559   CU        0.173082    0.237007    0.291062     0.006663
CU1560   CU        0.187596    0.282704    0.327438     0.006663
NI1561   NI        0.218645    0.248719    0.330467     0.004307
NI1562   NI        0.220836    0.284087    0.297981     0.004307
CU1563   CU        0.245363    0.238349    0.290756     0.006663
NI1564   NI        0.252258    0.283722    0.329735     0.004307
CU1565   CU        0.285605    0.252072    0.330827     0.006663
NI1566   NI        0.286892    0.286452    0.298006     0.004307
NI1567   NI        0.318804    0.248677    0.298281     0.004307
CU1568   CU        0.321124    0.283872    0.330054     0.006663
CU1569   CU        0.352747    0.250794    0.329353     0.006663
CU1570   CU        0.352808    0.283491    0.297937     0.006663
CU1571   CU        0.385539    0.250381    0.298953     0.006663
CU1572   CU        0.385505    0.282560    0.329325     0.006663
CU1573   CU        0.419974    0.249867    0.329787     0.006663
CU1574   CU        0.420644    0.283104    0.300573     0.006663
NI1575   NI        0.453343    0.252576    0.298999     0.004307
CU1576   CU        0.453682    0.282688    0.330968     0.006663
CU1577   CU        0.485960    0.251827    0.330720     0.006663
CU1578   CU        0.486791    0.284176    0.300281     0.006663
CU1579   CU        0.519932    0.250541    0.301106     0.006663
CU1580   CU        0.521659    0.283903    0.330559     0.006663
CU1581   CU        0.553306    0.249989    0.330567     0.006663
CU1582   CU        0.554153    0.283845    0.298481     0.006663
NI1583   NI        0.588286    0.250749    0.300480     0.004307
CU1584   CU        0.589032    0.281884    0.331036     0.006663
NI1585   NI        0.622517    0.247924    0.330898     0.004307
NI1586   NI        0.622665    0.284692    0.298199     0.004307
NI1587   NI        0.653318    0.253579    0.298621     0.004307
NI1588   NI        0.655894    0.282453    0.332423     0.004307
CU1589   CU        0.687363    0.247863    0.327633     0.006663
CU1590   CU        0.687618    0.283511    0.298306     0.006663
NI1591   NI        0.717939    0.251315    0.295169     0.004307
NI1592   NI        0.718844    0.279137    0.328056     0.004307
NI1593   NI        0.767349    0.238687    0.327858     0.004307
NI1594   NI        0.750795    0.280984    0.296713     0.004307
NI1595   NI        0.797674    0.241213    0.297217     0.004307
NI1596   NI        0.802665    0.273937    0.327798     0.004307
CU1597   CU        0.832769    0.241255    0.327594     0.006663
NI1598   NI        0.833281    0.274713    0.295980     0.004307
NI1599   NI        0.863383    0.274888    0.329850     0.004307
NI1600   NI        0.044789    0.308925    0.289860     0.004307
NI1601   NI        0.045781    0.340048    0.324651     0.004307
NI1602   NI        0.074491    0.305229    0.323448     0.004307
CU1603   CU        0.075938    0.340110    0.291191     0.006663
NI1604   NI        0.108827    0.304241    0.294033     0.004307
NI1605   NI        0.097946    0.345590    0.327137     0.004307
NI1606   NI        0.155621    0.313387    0.331682     0.004307
NI1607   NI        0.156044    0.349501    0.299710     0.004307
NI1608   NI        0.186951    0.315759    0.296693     0.004307
NI1609   NI        0.185224    0.347597    0.330466     0.004307
NI1610   NI        0.217396    0.316089    0.331099     0.004307
NI1611   NI        0.218853    0.350371    0.297982     0.004307
NI1612   NI        0.251512    0.316267    0.299478     0.004307
CU1613   CU        0.253525    0.348330    0.330431     0.006663
NI1614   NI        0.284942    0.316381    0.330455     0.004307
NI1615   NI        0.286150    0.348517    0.299577     0.004307
CU1616   CU        0.320152    0.318353    0.297450     0.006663
CU1617   CU        0.319689    0.350529    0.331064     0.006663
CU1618   CU        0.352316    0.315771    0.330364     0.006663
CU1619   CU        0.354887    0.349368    0.299253     0.006663
CU1620   CU        0.386819    0.316646    0.299508     0.006663
CU1621   CU        0.385818    0.349794    0.331656     0.006663
CU1622   CU        0.420477    0.315294    0.331993     0.006663
CU1623   CU        0.420301    0.350989    0.299931     0.006663
CU1624   CU        0.452458    0.317408    0.300477     0.006663
CU1625   CU        0.452150    0.349165    0.331598     0.006663
NI1626   NI        0.485996    0.317315    0.331162     0.004307
CU1627   CU        0.487474    0.352016    0.299576     0.006663
CU1628   CU        0.519517    0.316364    0.300280     0.006663
CU1629   CU        0.520744    0.349413    0.328789     0.006663
CU1630   CU        0.555299    0.315343    0.329568     0.006663
CU1631   CU        0.553187    0.349982    0.299340     0.006663
NI1632   NI        0.587788    0.315522    0.298988     0.004307
CU1633   CU        0.586560    0.349946    0.330562     0.006663
CU1634   CU        0.621815    0.317144    0.331852     0.006663
NI1635   NI        0.620867    0.348430    0.301269     0.004307
NI1636   NI        0.657343    0.317543    0.297542     0.004307
CU1637   CU        0.654340    0.347945    0.330490     0.006663
NI1638   NI        0.688599    0.315005    0.330564     0.004307
NI1639   NI        0.690131    0.349698    0.297964     0.004307
NI1640   NI        0.720159    0.314304    0.299069     0.004307
NI1641   NI        0.723347    0.350273    0.329803     0.004307
NI1642   NI        0.750867    0.310981    0.328471     0.004307
NI1643   NI        0.753902    0.347414    0.294079     0.004307
NI1644   NI        0.804165    0.310197    0.298775     0.004307
NI1645   NI        0.806783    0.348247    0.326608     0.004307
NI1646   NI        0.833109    0.310785    0.329243     0.004307
NI1647   NI        0.835558    0.343983    0.297097     0.004307
NI1648   NI        0.868640    0.309995    0.294495     0.004307
CU1649   CU        0.863707    0.341942    0.328470     0.006663
NI1650   NI        0.017745    0.375441    0.323742     0.004307
CU1651   CU        0.019426    0.411391    0.295339     0.006663
NI1652   NI        0.046234    0.374474    0.290828     0.004307
CU1653   CU        0.038038    0.414453    0.334288     0.006663
CU1654   CU        0.068130    0.379759    0.328674     0.006663
NI1655   NI        0.065314    0.416011    0.299468     0.004307
NI1656   NI        0.121111    0.381690    0.305370     0.004307
CU1657   CU        0.098839    0.414883    0.328533     0.006663
NI1658   NI        0.157018    0.383526    0.331582     0.004307
NI1659   NI        0.152298    0.415401    0.298756     0.004307
CU1660   CU        0.186247    0.385292    0.299487     0.006663
NI1661   NI        0.185886    0.419198    0.330149     0.004307
NI1662   NI        0.220142    0.383731    0.330351     0.004307
CU1663   CU        0.220543    0.416342    0.297744     0.006663
NI1664   NI        0.253111    0.382536    0.297327     0.004307
NI1665   NI        0.252749    0.414970    0.330635     0.004307
CU1666   CU        0.287381    0.383139    0.329958     0.006663
CU1667   CU        0.284338    0.415681    0.298747     0.006663
CU1668   CU        0.322159    0.382858    0.298465     0.006663
CU1669   CU        0.319110    0.417130    0.329790     0.006663
NI1670   NI        0.353906    0.382730    0.330277     0.004307
CU1671   CU        0.356053    0.416846    0.296802     0.006663
CU1672   CU        0.386128    0.383505    0.300586     0.006663
CU1673   CU        0.386985    0.416288    0.332250     0.006663
CU1674   CU        0.419861    0.383948    0.329393     0.006663
CU1675   CU        0.418579    0.417637    0.300054     0.006663
CU1676   CU        0.452694    0.384162    0.299858     0.006663
CU1677   CU        0.452400    0.418106    0.332812     0.006663
NI1678   NI        0.487848    0.383843    0.330400     0.004307
CU1679   CU        0.486266    0.418685    0.299236     0.006663
CU1680   CU        0.520790    0.384863    0.299645     0.006663
CU1681   CU        0.520854    0.418497    0.332512     0.006663
CU1682   CU        0.553146    0.384102    0.330646     0.006663
CU1683   CU        0.553098    0.418303    0.298527     0.006663
NI1684   NI        0.587474    0.385104    0.297404     0.004307
CU1685   CU        0.585038    0.417548    0.328698     0.006663
CU1686   CU        0.619928    0.385373    0.332978     0.006663
NI1687   NI        0.620563    0.416259    0.301114     0.004307
CU1688   CU        0.653414    0.382374    0.301024     0.006663
CU1689   CU        0.653070    0.415680    0.332821     0.006663
NI1690   NI        0.690080    0.382560    0.329463     0.004307
CU1691   CU        0.687444    0.416667    0.298840     0.006663
NI1692   NI        0.722260    0.383960    0.298505     0.004307
CU1693   CU        0.720426    0.417429    0.329657     0.006663
CU1694   CU        0.753330    0.385698    0.330675     0.006663
NI1695   NI        0.753974    0.418212    0.300524     0.004307
NI1696   NI        0.805862    0.381352    0.297116     0.004307
CU1697   CU        0.809718    0.414007    0.327288     0.006663
NI1698   NI        0.838020    0.381161    0.325943     0.004307
NI1699   NI        0.835835    0.416036    0.293137     0.004307
NI1700   NI        0.864911    0.384021    0.293342     0.004307
NI1701   NI        0.865955    0.417819    0.328591     0.004307
NI1702   NI        0.895454    0.381188    0.327671     0.004307
NI1703   NI        0.897152    0.416044    0.298340     0.004307
NI1704   NI        0.018819    0.453397    0.326081     0.004307
NI1705   NI        0.014656    0.488510    0.291637     0.004307
CU1706   CU        0.043968    0.453805    0.287735     0.006663
NI1707   NI        0.045495    0.488254    0.323344     0.004307
NI1708   NI        0.065889    0.449131    0.331829     0.004307
NI1709   NI        0.074075    0.485456    0.290178     0.004307
NI1710   NI        0.096748    0.449351    0.297445     0.004307
NI1711   NI        0.098489    0.484911    0.329451     0.004307
CU1712   CU        0.130719    0.452403    0.325773     0.006663
NI1713   NI        0.153017    0.478874    0.297733     0.004307
NI1714   NI        0.187724    0.448737    0.297953     0.004307
NI1715   NI        0.186213    0.483100    0.326860     0.004307
CU1716   CU        0.220265    0.450266    0.330506     0.006663
NI1717   NI        0.218522    0.484419    0.299719     0.004307
CU1718   CU        0.253336    0.451052    0.300011     0.006663
CU1719   CU        0.253521    0.482517    0.330957     0.006663
CU1720   CU        0.286001    0.448036    0.328884     0.006663
CU1721   CU        0.287010    0.480916    0.297787     0.006663
CU1722   CU        0.319930    0.449960    0.300064     0.006663
CU1723   CU        0.319395    0.481388    0.331512     0.006663
CU1724   CU        0.353490    0.449027    0.330490     0.006663
NI1725   NI        0.353254    0.481640    0.299896     0.004307
CU1726   CU        0.387729    0.450136    0.301055     0.006663
CU1727   CU        0.386846    0.485305    0.331130     0.006663
CU1728   CU        0.420722    0.451345    0.333176     0.006663
CU1729   CU        0.421948    0.486351    0.301074     0.006663
CU1730   CU        0.452243    0.450508    0.301275     0.006663
CU1731   CU        0.453375    0.485888    0.332811     0.006663
CU1732   CU        0.485955    0.449757    0.332539     0.006663
CU1733   CU        0.485379    0.484269    0.300895     0.006663
CU1734   CU        0.518052    0.451255    0.301034     0.006663
CU1735   CU        0.518287    0.483792    0.332307     0.006663
CU1736   CU        0.552159    0.451743    0.332745     0.006663
CU1737   CU        0.552689    0.485028    0.303447     0.006663
CU1738   CU        0.586435    0.450026    0.298521     0.006663
CU1739   CU        0.585392    0.482741    0.333835     0.006663
CU1740   CU        0.618440    0.452837    0.329927     0.006663
CU1741   CU        0.618210    0.484003    0.300342     0.006663
NI1742   NI        0.652607    0.450002    0.301393     0.004307
CU1743   CU        0.650573    0.484418    0.331856     0.006663
NI1744   NI        0.685451    0.448582    0.330043     0.004307
CU1745   CU        0.684332    0.481665    0.301961     0.006663
CU1746   CU        0.721206    0.450639    0.300695     0.006663
NI1747   NI        0.718110    0.482035    0.331051     0.004307
NI1748   NI        0.753781    0.451932    0.334456     0.004307
NI1749   NI        0.752801    0.482624    0.299628     0.004307
NI1750   NI        0.808275    0.450325    0.296440     0.004307
NI1751   NI        0.809159    0.489512    0.326892     0.004307
NI1752   NI        0.836142    0.452400    0.329151     0.004307
NI1753   NI        0.837089    0.486924    0.296325     0.004307
NI1754   NI        0.866863    0.451771    0.295809     0.004307
CU1755   CU        0.866985    0.487549    0.328604     0.006663
NI1756   NI        0.896156    0.452564    0.327181     0.004307
NI1757   NI        0.897615    0.486744    0.295804     0.004307
NI1758   NI        0.015082    0.524539    0.323684     0.004307
CU1759   CU        0.045692    0.520697    0.292832     0.006663
NI1760   NI        0.044777    0.557337    0.324947     0.004307
CU1761   CU        0.074597    0.523411    0.325942     0.006663
NI1762   NI        0.074787    0.557764    0.291157     0.004307
CU1763   CU        0.102567    0.522422    0.291996     0.006663
NI1764   NI        0.101920    0.557025    0.325349     0.004307
NI1765   NI        0.128514    0.519732    0.326176     0.004307
CU1766   CU        0.136618    0.558768    0.290791     0.006663
CU1767   CU        0.185345    0.515425    0.298253     0.006663
NI1768   NI        0.189137    0.547208    0.331695     0.004307
CU1769   CU        0.220200    0.515783    0.332112     0.006663
CU1770   CU        0.219079    0.548528    0.297481     0.006663
CU1771   CU        0.253230    0.516539    0.300631     0.006663
CU1772   CU        0.250759    0.550258    0.330034     0.006663
CU1773   CU        0.288023    0.517263    0.331009     0.006663
CU1774   CU        0.286569    0.550154    0.299056     0.006663
CU1775   CU        0.321416    0.517500    0.298708     0.006663
CU1776   CU        0.319952    0.552185    0.330789     0.006663
CU1777   CU        0.354409    0.516819    0.331250     0.006663
NI1778   NI        0.353015    0.552177    0.300434     0.004307
CU1779   CU        0.385414    0.518321    0.299404     0.006663
CU1780   CU        0.385774    0.550981    0.331352     0.006663
CU1781   CU        0.419359    0.519727    0.333543     0.006663
CU1782   CU        0.419507    0.552149    0.299746     0.006663
CU1783   CU        0.453238    0.519823    0.300753     0.006663
NI1784   NI        0.451990    0.552117    0.331330     0.004307
CU1785   CU        0.484532    0.520093    0.333817     0.006663
NI1786   NI        0.486173    0.553637    0.300896     0.004307
NI1787   NI        0.518701    0.518149    0.302554     0.004307
CU1788   CU        0.519896    0.551216    0.332270     0.006663
CU1789   CU        0.551166    0.516504    0.333373     0.006663
NI1790   NI        0.552512    0.551630    0.301199     0.004307
CU1791   CU        0.585901    0.517858    0.302303     0.006663
CU1792   CU        0.585338    0.552646    0.333294     0.006663
CU1793   CU        0.619118    0.518230    0.333718     0.006663
CU1794   CU        0.617782    0.549483    0.303176     0.006663
CU1795   CU        0.651753    0.517316    0.302393     0.006663
CU1796   CU        0.651394    0.548669    0.333364     0.006663
CU1797   CU        0.686087    0.515768    0.333812     0.006663
NI1798   NI        0.683939    0.550780    0.303462     0.004307
NI1799   NI        0.716107    0.514418    0.300370     0.004307
NI1800   NI        0.720651    0.552085    0.332533     0.004307
NI1801   NI        0.748839    0.515567    0.330037     0.004307
NI1802   NI        0.750819    0.546760    0.298635     0.004307
NI1803   NI        0.806502    0.523198    0.297192     0.004307
NI1804   NI        0.804845    0.557646    0.326693     0.004307
NI1805   NI        0.835532    0.524630    0.329354     0.004307
CU1806   CU        0.835661    0.558245    0.296291     0.006663
NI1807   NI        0.865182    0.522610    0.297563     0.004307
NI1808   NI        0.865984    0.559553    0.328731     0.004307
NI1809   NI        0.898241    0.522305    0.328770     0.004307
NI1810   NI        0.045194    0.589136    0.293898     0.004307
CU1811   CU        0.042293    0.624786    0.325168     0.006663
NI1812   NI        0.074629    0.592179    0.327377     0.004307
NI1813   NI        0.075004    0.626393    0.294620     0.004307
CU1814   CU        0.105803    0.592848    0.291464     0.006663
NI1815   NI        0.106206    0.625504    0.328447     0.004307
CU1816   CU        0.136642    0.590440    0.322343     0.006663
NI1817   NI        0.138641    0.624841    0.294070     0.004307
NI1818   NI        0.169621    0.590626    0.291387     0.004307
NI1819   NI        0.169662    0.622278    0.322035     0.004307
NI1820   NI        0.221775    0.582655    0.330187     0.004307
NI1821   NI        0.217427    0.615974    0.298521     0.004307
CU1822   CU        0.253776    0.584185    0.298750     0.006663
NI1823   NI        0.251113    0.618327    0.328884     0.004307
NI1824   NI        0.285628    0.584045    0.331856     0.004307
CU1825   CU        0.284817    0.617249    0.297565     0.006663
NI1826   NI        0.318648    0.583811    0.299173     0.004307
CU1827   CU        0.318758    0.616725    0.330438     0.006663
CU1828   CU        0.355336    0.585641    0.330745     0.006663
NI1829   NI        0.352603    0.618529    0.301125     0.004307
NI1830   NI        0.388676    0.583511    0.299875     0.004307
CU1831   CU        0.386026    0.619492    0.331167     0.006663
CU1832   CU        0.420395    0.585361    0.331510     0.006663
CU1833   CU        0.419914    0.617755    0.301293     0.006663
CU1834   CU        0.450982    0.584016    0.299973     0.006663
CU1835   CU        0.452955    0.622343    0.332890     0.006663
CU1836   CU        0.487540    0.584367    0.333189     0.006663
CU1837   CU        0.485863    0.616231    0.300305     0.006663
CU1838   CU        0.518967    0.586480    0.303447     0.006663
CU1839   CU        0.518062    0.620270    0.334348     0.006663
NI1840   NI        0.552338    0.586271    0.332478     0.004307
NI1841   NI        0.553005    0.617893    0.300645     0.004307
CU1842   CU        0.583747    0.585005    0.301708     0.006663
NI1843   NI        0.587054    0.620956    0.332519     0.004307
NI1844   NI        0.620565    0.583416    0.332081     0.004307
NI1845   NI        0.620721    0.619486    0.302306     0.004307
NI1846   NI        0.654104    0.585987    0.301059     0.004307
NI1847   NI        0.651607    0.617810    0.332972     0.004307
CU1848   CU        0.687454    0.585089    0.333637     0.006663
NI1849   NI        0.688146    0.616442    0.302581     0.004307
NI1850   NI        0.723936    0.583305    0.302496     0.004307
NI1851   NI        0.718462    0.619420    0.334430     0.004307
NI1852   NI        0.751926    0.586036    0.334014     0.004307
NI1853   NI        0.757488    0.611325    0.297466     0.004307
NI1854   NI        0.803051    0.593491    0.293353     0.004307
NI1855   NI        0.802648    0.628903    0.329583     0.004307
NI1856   NI        0.833586    0.593645    0.326003     0.004307
CU1857   CU        0.832639    0.627344    0.296043     0.006663
NI1858   NI        0.865613    0.591231    0.294017     0.004307
NI1859   NI        0.865512    0.629000    0.327185     0.004307
NI1860   NI        0.075238    0.660242    0.328021     0.004307
NI1861   NI        0.077529    0.693845    0.296566     0.004307
NI1862   NI        0.106606    0.661089    0.296909     0.004307
NI1863   NI        0.108951    0.693187    0.327186     0.004307
CU1864   CU        0.141647    0.658872    0.328177     0.006663
NI1865   NI        0.142654    0.694982    0.296398     0.004307
CU1866   CU        0.177104    0.659216    0.289960     0.006663
NI1867   NI        0.173103    0.696624    0.329636     0.004307
NI1868   NI        0.216660    0.649457    0.329182     0.004307
NI1869   NI        0.204555    0.698777    0.296031     0.004307
CU1870   CU        0.250720    0.649203    0.298553     0.006663
NI1871   NI        0.250296    0.682271    0.329861     0.004307
NI1872   NI        0.286157    0.650535    0.330397     0.004307
NI1873   NI        0.284375    0.682646    0.300378     0.004307
NI1874   NI        0.317945    0.648779    0.298653     0.004307
CU1875   CU        0.320388    0.681650    0.327456     0.006663
CU1876   CU        0.352682    0.649308    0.331363     0.006663
CU1877   CU        0.352012    0.681466    0.298404     0.006663
CU1878   CU        0.385395    0.651272    0.298474     0.006663
CU1879   CU        0.385256    0.681923    0.329978     0.006663
CU1880   CU        0.419260    0.654123    0.330640     0.006663
NI1881   NI        0.420595    0.682735    0.296726     0.004307
CU1882   CU        0.453125    0.651582    0.300592     0.006663
CU1883   CU        0.451032    0.685336    0.328927     0.006663
NI1884   NI        0.486054    0.653956    0.333067     0.004307
CU1885   CU        0.488061    0.683609    0.298492     0.006663
CU1886   CU        0.519482    0.649903    0.301173     0.006663
NI1887   NI        0.516283    0.686180    0.332506     0.004307
NI1888   NI        0.553940    0.652401    0.331198     0.004307
NI1889   NI        0.561168    0.699982    0.291894     0.004307
NI1890   NI        0.589709    0.657673    0.298472     0.004307
NI1891   NI        0.590113    0.696491    0.327403     0.004307
CU1892   CU        0.619580    0.652344    0.332068     0.006663
NI1893   NI        0.628914    0.683937    0.298324     0.004307
NI1894   NI        0.658133    0.649627    0.300008     0.004307
NI1895   NI        0.665886    0.693141    0.326709     0.004307
NI1896   NI        0.687653    0.650373    0.331130     0.004307
CU1897   CU        0.699299    0.688403    0.297179     0.006663
NI1898   NI        0.725775    0.648160    0.298218     0.004307
NI1899   NI        0.734306    0.695325    0.326799     0.004307
NI1900   NI        0.768934    0.665140    0.328186     0.004307
NI1901   NI        0.770955    0.695336    0.297173     0.004307
NI1902   NI        0.800920    0.660376    0.298330     0.004307
CU1903   CU        0.801413    0.693813    0.330088     0.006663
NI1904   NI        0.833846    0.660421    0.331066     0.004307
NI1905   NI        0.834764    0.690030    0.297897     0.004307
NI1906   NI        0.108220    0.726881    0.296068     0.004307
NI1907   NI        0.107669    0.762273    0.328148     0.004307
NI1908   NI        0.140778    0.727501    0.327685     0.004307
CU1909   CU        0.140645    0.760913    0.296421     0.006663
NI1910   NI        0.172273    0.728187    0.295078     0.004307
CU1911   CU        0.176607    0.763460    0.324706     0.006663
NI1912   NI        0.208362    0.731166    0.329122     0.004307
NI1913   NI        0.209791    0.762475    0.294648     0.004307
NI1914   NI        0.242095    0.732287    0.293938     0.004307
NI1915   NI        0.241946    0.764017    0.329777     0.004307
NI1916   NI        0.280124    0.734328    0.325291     0.004307
CU1917   CU        0.274951    0.765665    0.294500     0.006663
NI1918   NI        0.313155    0.737234    0.292436     0.004307
CU1919   CU        0.310538    0.769050    0.327116     0.006663
NI1920   NI        0.355852    0.716269    0.325703     0.004307
CU1921   CU        0.346765    0.767727    0.291409     0.006663
NI1922   NI        0.381750    0.737413    0.293984     0.004307
CU1923   CU        0.382019    0.767190    0.326388     0.006663
NI1924   NI        0.415443    0.736403    0.326974     0.004307
NI1925   NI        0.416004    0.768467    0.294842     0.004307
NI1926   NI        0.449883    0.738294    0.295038     0.004307
CU1927   CU        0.454260    0.763241    0.327919     0.006663
NI1928   NI        0.488290    0.734365    0.327564     0.004307
NI1929   NI        0.488067    0.763066    0.294228     0.004307
NI1930   NI        0.525595    0.731790    0.292090     0.004307
NI1931   NI        0.523639    0.765387    0.324011     0.004307
NI1932   NI        0.557508    0.732025    0.328512     0.004307
CU1933   CU        0.558710    0.764849    0.295465     0.006663
CU1934   CU        0.602377    0.721282    0.294503     0.006663
NI1935   NI        0.591827    0.765479    0.328491     0.004307
NI1936   NI        0.634811    0.724876    0.324454     0.004307
NI1937   NI        0.635328    0.756060    0.294826     0.004307
NI1938   NI        0.664812    0.721087    0.293269     0.004307
NI1939   NI        0.667976    0.757801    0.323693     0.004307
NI1940   NI        0.698654    0.724752    0.326968     0.004307
NI1941   NI        0.702359    0.756083    0.291248     0.004307
NI1942   NI        0.731536    0.719652    0.293132     0.004307
NI1943   NI        0.737743    0.755938    0.320366     0.004307
NI1944   NI        0.768396    0.726675    0.328797     0.004307
NI1945   NI        0.769376    0.743200    0.289564     0.004307
NI1946   NI        0.804843    0.723458    0.301434     0.004307
CU1947   CU        0.798336    0.758310    0.328129     0.006663
NI1948   NI        0.143669    0.794491    0.328672     0.004307
NI1949   NI        0.176892    0.795087    0.295207     0.004307
NI1950   NI        0.207348    0.797656    0.328325     0.004307
NI1951   NI        0.208158    0.828222    0.293070     0.004307
NI1952   NI        0.242337    0.798125    0.292906     0.004307
NI1953   NI        0.240851    0.832307    0.327245     0.004307
CU1954   CU        0.275686    0.798442    0.326103     0.006663
CU1955   CU        0.275345    0.829200    0.294835     0.006663
NI1956   NI        0.310396    0.797789    0.294322     0.004307
NI1957   NI        0.310487    0.830739    0.325927     0.004307
NI1958   NI        0.344194    0.798221    0.326985     0.004307
NI1959   NI        0.345650    0.829119    0.291748     0.004307
NI1960   NI        0.380862    0.799138    0.293510     0.004307
CU1961   CU        0.381165    0.828929    0.328043     0.006663
NI1962   NI        0.418169    0.797800    0.328899     0.004307
CU1963   CU        0.419077    0.829704    0.294195     0.006663
NI1964   NI        0.453039    0.795901    0.293351     0.004307
NI1965   NI        0.453230    0.829001    0.325910     0.004307
NI1966   NI        0.488348    0.796176    0.328753     0.004307
NI1967   NI        0.488384    0.829409    0.296788     0.004307
NI1968   NI        0.519342    0.797459    0.294840     0.004307
NI1969   NI        0.522038    0.828456    0.327513     0.004307
NI1970   NI        0.557171    0.795087    0.328050     0.004307
NI1971   NI        0.558607    0.830477    0.292236     0.004307
NI1972   NI        0.590110    0.799625    0.297248     0.004307
NI1973   NI        0.591808    0.830862    0.328397     0.004307
NI1974   NI        0.627387    0.798803    0.325729     0.004307
NI1975   NI        0.626461    0.828849    0.296137     0.004307
NI1976   NI        0.664900    0.793079    0.295890     0.004307
NI1977   NI        0.660250    0.828674    0.328272     0.004307
CU1978   CU        0.693535    0.795469    0.331920     0.006663
CU1979   CU        0.695207    0.829420    0.301028     0.006663
NI1980   NI        0.727104    0.794979    0.301988     0.004307
NI1981   NI        0.766605    0.790512    0.326224     0.004307
NI1982   NI        0.277748    0.861252    0.327782     0.004307
NI1983   NI        0.311127    0.860853    0.291427     0.004307
NI1984   NI        0.347236    0.860763    0.324979     0.004307
NI1985   NI        0.380616    0.860645    0.292780     0.004307
NI1986   NI        0.383138    0.890652    0.325852     0.004307
NI1987   NI        0.417735    0.860711    0.326848     0.004307
CU1988   CU        0.417116    0.889684    0.295255     0.006663
NI1989   NI        0.453736    0.860147    0.294408     0.004307
CU1990   CU        0.453229    0.892901    0.327250     0.006663
NI1991   NI        0.488256    0.861452    0.326571     0.004307
NI1992   NI        0.486220    0.892275    0.293651     0.004307
CU1993   CU        0.520673    0.858826    0.295483     0.006663
NI1994   NI        0.520182    0.891933    0.322540     0.004307
NI1995   NI        0.554410    0.861467    0.324941     0.004307
CU1996   CU        0.594165    0.860803    0.295833     0.006663
NI1997   NI        0.627674    0.859699    0.327760     0.004307
NI1998   NI        0.313166    0.009595    0.390452     0.004307
NI1999   NI        0.348869    0.010418    0.357594     0.004307
NI2000   NI        0.378213    0.008332    0.392128     0.004307
NI2001   NI        0.417982    0.012365    0.353119     0.004307
NI2002   NI        0.453275    0.009867    0.392763     0.004307
CU2003   CU        0.493105    0.007890    0.360379     0.006663
NI2004   NI        0.526051    0.007935    0.390516     0.004307
NI2005   NI        0.561017    0.008712    0.359744     0.004307
CU2006   CU        0.591713    0.008097    0.392404     0.006663
NI2007   NI        0.173085    0.073717    0.389943     0.004307
CU2008   CU        0.210487    0.074064    0.360071     0.006663
CU2009   CU        0.243326    0.040083    0.356560     0.006663
NI2010   NI        0.246472    0.072654    0.392771     0.004307
NI2011   NI        0.277672    0.039863    0.393382     0.004307
NI2012   NI        0.277309    0.071631    0.357163     0.004307
NI2013   NI        0.315533    0.042131    0.358899     0.004307
CU2014   CU        0.309678    0.072097    0.392929     0.006663
NI2015   NI        0.346562    0.041850    0.391877     0.004307
CU2016   CU        0.349589    0.071836    0.357062     0.006663
NI2017   NI        0.381892    0.039679    0.355490     0.004307
CU2018   CU        0.383514    0.069061    0.391850     0.006663
CU2019   CU        0.417886    0.038001    0.392629     0.006663
NI2020   NI        0.418701    0.067881    0.359372     0.004307
NI2021   NI        0.455222    0.038788    0.359321     0.004307
NI2022   NI        0.454347    0.070272    0.393017     0.004307
CU2023   CU        0.489026    0.039154    0.390848     0.006663
CU2024   CU        0.491391    0.068868    0.361809     0.006663
NI2025   NI        0.525871    0.038282    0.361037     0.004307
NI2026   NI        0.522768    0.071555    0.392653     0.004307
NI2027   NI        0.559427    0.039983    0.391394     0.004307
NI2028   NI        0.560812    0.069736    0.359628     0.004307
NI2029   NI        0.593401    0.039982    0.358616     0.004307
NI2030   NI        0.594543    0.070742    0.390680     0.004307
NI2031   NI        0.629216    0.040692    0.390060     0.004307
NI2032   NI        0.630232    0.074258    0.355675     0.004307
NI2033   NI        0.664609    0.042292    0.356083     0.004307
CU2034   CU        0.665881    0.072772    0.390015     0.006663
NI2035   NI        0.699085    0.074682    0.359276     0.004307
NI2036   NI        0.731080    0.072337    0.390595     0.004307
NI2037   NI        0.110170    0.140322    0.389828     0.004307
NI2038   NI        0.142810    0.106589    0.390220     0.004307
NI2039   NI        0.144560    0.141317    0.360347     0.004307
NI2040   NI        0.176359    0.105498    0.358830     0.004307
NI2041   NI        0.176074    0.140121    0.390812     0.004307
NI2042   NI        0.209562    0.103087    0.390031     0.004307
NI2043   NI        0.209699    0.136750    0.359608     0.004307
NI2044   NI        0.243206    0.104999    0.361327     0.004307
NI2045   NI        0.241287    0.137992    0.391625     0.004307
NI2046   NI        0.278694    0.106298    0.390989     0.004307
NI2047   NI        0.279418    0.131146    0.356914     0.004307
NI2048   NI        0.312062    0.101280    0.357791     0.004307
NI2049   NI        0.317217    0.130007    0.388261     0.004307
NI2050   NI        0.348299    0.097441    0.390420     0.004307
NI2051   NI        0.348020    0.132358    0.355343     0.004307
NI2052   NI        0.384422    0.100623    0.359271     0.004307
NI2053   NI        0.383054    0.131763    0.392715     0.004307
NI2054   NI        0.417339    0.100830    0.390136     0.004307
NI2055   NI        0.420166    0.131468    0.357238     0.004307
NI2056   NI        0.455296    0.099149    0.358212     0.004307
NI2057   NI        0.451443    0.130382    0.390647     0.004307
NI2058   NI        0.488703    0.102686    0.393341     0.004307
NI2059   NI        0.492155    0.129822    0.356447     0.004307
CU2060   CU        0.525937    0.101835    0.359572     0.006663
NI2061   NI        0.527839    0.134125    0.389040     0.004307
NI2062   NI        0.559494    0.101946    0.390742     0.004307
NI2063   NI        0.560373    0.133112    0.354656     0.004307
CU2064   CU        0.595152    0.102746    0.356571     0.006663
NI2065   NI        0.593444    0.131493    0.391675     0.004307
NI2066   NI        0.631076    0.103024    0.389436     0.004307
NI2067   NI        0.629760    0.135734    0.356845     0.004307
NI2068   NI        0.666987    0.105153    0.360830     0.004307
NI2069   NI        0.664573    0.137315    0.390945     0.004307
CU2070   CU        0.698197    0.107242    0.392048     0.006663
NI2071   NI        0.699162    0.137304    0.359613     0.004307
NI2072   NI        0.733980    0.106994    0.359904     0.004307
NI2073   NI        0.734135    0.139209    0.393500     0.004307
NI2074   NI        0.764148    0.106586    0.391781     0.004307
NI2075   NI        0.767305    0.137199    0.354556     0.004307
NI2076   NI        0.798493    0.141447    0.391466     0.004307
NI2077   NI        0.078031    0.170829    0.391684     0.004307
NI2078   NI        0.076668    0.205960    0.358551     0.004307
NI2079   NI        0.107169    0.169528    0.357454     0.004307
NI2080   NI        0.108868    0.203675    0.390792     0.004307
NI2081   NI        0.141885    0.171659    0.392929     0.004307
NI2082   NI        0.139233    0.203803    0.358319     0.004307
NI2083   NI        0.175679    0.173340    0.358768     0.004307
NI2084   NI        0.171379    0.203764    0.393006     0.004307
NI2085   NI        0.206459    0.171635    0.389638     0.004307
NI2086   NI        0.218905    0.220465    0.363834     0.004307
NI2087   NI        0.248633    0.186309    0.362114     0.004307
NI2088   NI        0.255181    0.218469    0.392463     0.004307
NI2089   NI        0.286805    0.184455    0.387407     0.004307
NI2090   NI        0.284023    0.217868    0.359814     0.004307
NI2091   NI        0.313593    0.164619    0.358572     0.004307
CU2092   CU        0.317578    0.218546    0.389455     0.006663
NI2093   NI        0.350352    0.186697    0.388400     0.004307
CU2094   CU        0.351881    0.217573    0.360140     0.006663
NI2095   NI        0.385989    0.184240    0.359560     0.004307
CU2096   CU        0.386188    0.216714    0.390953     0.006663
NI2097   NI        0.422127    0.184773    0.390520     0.004307
NI2098   NI        0.420380    0.213934    0.359207     0.004307
CU2099   CU        0.455968    0.184164    0.361172     0.006663
CU2100   CU        0.454406    0.216876    0.392548     0.006663
CU2101   CU        0.488281    0.184935    0.394703     0.006663
CU2102   CU        0.488210    0.213829    0.360607     0.006663
NI2103   NI        0.522057    0.184025    0.361433     0.004307
CU2104   CU        0.520030    0.216892    0.393483     0.006663
NI2105   NI        0.554630    0.185650    0.394728     0.004307
CU2106   CU        0.554548    0.218055    0.365186     0.006663
NI2107   NI        0.595467    0.165783    0.357661     0.004307
CU2108   CU        0.587812    0.216250    0.393581     0.006663
NI2109   NI        0.616984    0.181364    0.391763     0.004307
NI2110   NI        0.620398    0.218203    0.362411     0.004307
NI2111   NI        0.666332    0.168667    0.356383     0.004307
NI2112   NI        0.650123    0.214618    0.391628     0.004307
CU2113   CU        0.699064    0.167919    0.390344     0.006663
NI2114   NI        0.703183    0.201423    0.360258     0.004307
CU2115   CU        0.735120    0.168982    0.359351     0.006663
NI2116   NI        0.735091    0.202992    0.391854     0.004307
NI2117   NI        0.768372    0.174033    0.392629     0.004307
NI2118   NI        0.768260    0.203990    0.357964     0.004307
CU2119   CU        0.801452    0.169842    0.355932     0.006663
CU2120   CU        0.798234    0.205703    0.393166     0.006663
NI2121   NI        0.830515    0.172796    0.391335     0.004307
NI2122   NI        0.831897    0.207474    0.361542     0.004307
NI2123   NI        0.041528    0.240562    0.358846     0.004307
NI2124   NI        0.042722    0.275807    0.393531     0.004307
NI2125   NI        0.075409    0.239161    0.389677     0.004307
NI2126   NI        0.071770    0.274353    0.357912     0.004307
CU2127   CU        0.107258    0.240167    0.357491     0.006663
NI2128   NI        0.107029    0.274345    0.392076     0.004307
NI2129   NI        0.139371    0.240233    0.393120     0.004307
NI2130   NI        0.135074    0.276651    0.358101     0.004307
NI2131   NI        0.184011    0.250244    0.366121     0.004307
NI2132   NI        0.186484    0.282812    0.393909     0.004307
NI2133   NI        0.220019    0.251614    0.393794     0.004307
NI2134   NI        0.220154    0.283121    0.361094     0.004307
NI2135   NI        0.252538    0.250095    0.361520     0.004307
CU2136   CU        0.251415    0.282822    0.392478     0.006663
CU2137   CU        0.286245    0.250910    0.391859     0.006663
CU2138   CU        0.285926    0.284142    0.362218     0.006663
CU2139   CU        0.320144    0.251037    0.361401     0.006663
CU2140   CU        0.322351    0.282976    0.393651     0.006663
CU2141   CU        0.353474    0.250019    0.392295     0.006663
CU2142   CU        0.351690    0.282259    0.360642     0.006663
CU2143   CU        0.387583    0.248606    0.361597     0.006663
CU2144   CU        0.387488    0.281353    0.391541     0.006663
CU2145   CU        0.421638    0.250024    0.390427     0.006663
CU2146   CU        0.419875    0.283335    0.362394     0.006663
NI2147   NI        0.454802    0.249709    0.362309     0.004307
CU2148   CU        0.455029    0.281815    0.394565     0.006663
CU2149   CU        0.488992    0.247676    0.391869     0.006663
CU2150   CU        0.487345    0.283812    0.362482     0.006663
CU2151   CU        0.522889    0.247977    0.361623     0.006663
CU2152   CU        0.519653    0.283015    0.390939     0.006663
CU2153   CU        0.552595    0.252367    0.392338     0.006663
CU2154   CU        0.554596    0.284838    0.362573     0.006663
CU2155   CU        0.586515    0.250368    0.364090     0.006663
CU2156   CU        0.588379    0.286210    0.392702     0.006663
CU2157   CU        0.620672    0.250876    0.392410     0.006663
NI2158   NI        0.620564    0.283002    0.360792     0.004307
CU2159   CU        0.654507    0.249656    0.361592     0.006663
CU2160   CU        0.654112    0.283661    0.392843     0.006663
NI2161   NI        0.686223    0.250542    0.395227     0.004307
CU2162   CU        0.688084    0.281979    0.362652     0.006663
NI2163   NI        0.717702    0.243355    0.358061     0.004307
NI2164   NI        0.731635    0.272566    0.389512     0.004307
NI2165   NI        0.766632    0.240301    0.393478     0.004307
NI2166   NI        0.769194    0.272685    0.359791     0.004307
NI2167   NI        0.800176    0.239317    0.361403     0.004307
NI2168   NI        0.800126    0.276330    0.390450     0.004307
CU2169   CU        0.831672    0.242492    0.391318     0.006663
NI2170   NI        0.832909    0.276169    0.358754     0.004307
NI2171   NI        0.863638    0.240501    0.358999     0.004307
NI2172   NI        0.865917    0.277261    0.393791     0.004307
NI2173   NI        0.011144    0.307691    0.393433     0.004307
NI2174   NI        0.012451    0.342225    0.359527     0.004307
NI2175   NI        0.040680    0.308729    0.362081     0.004307
NI2176   NI        0.039970    0.342633    0.392715     0.004307
NI2177   NI        0.074097    0.308981    0.390560     0.004307
NI2178   NI        0.074087    0.345259    0.361512     0.004307
NI2179   NI        0.103244    0.308576    0.359096     0.004307
NI2180   NI        0.103606    0.344761    0.391692     0.004307
NI2181   NI        0.133077    0.310733    0.390414     0.004307
NI2182   NI        0.156460    0.346024    0.361181     0.004307
CU2183   CU        0.187157    0.312754    0.361431     0.006663
NI2184   NI        0.188403    0.348665    0.395868     0.004307
NI2185   NI        0.219403    0.315567    0.393269     0.004307
NI2186   NI        0.217257    0.351382    0.360758     0.004307
CU2187   CU        0.251743    0.317342    0.362793     0.006663
NI2188   NI        0.251015    0.349021    0.394511     0.004307
CU2189   CU        0.285013    0.313898    0.393662     0.006663
CU2190   CU        0.287664    0.349868    0.364118     0.006663
CU2191   CU        0.318318    0.316374    0.361247     0.006663
CU2192   CU        0.319510    0.350407    0.395437     0.006663
CU2193   CU        0.353817    0.316613    0.393492     0.006663
CU2194   CU        0.353958    0.349344    0.362512     0.006663
CU2195   CU        0.385286    0.314169    0.360652     0.006663
CU2196   CU        0.386690    0.349801    0.394827     0.006663
CU2197   CU        0.418723    0.314943    0.394269     0.006663
CU2198   CU        0.418025    0.348811    0.362960     0.006663
CU2199   CU        0.452710    0.316106    0.363573     0.006663
CU2200   CU        0.451893    0.350858    0.394242     0.006663
CU2201   CU        0.487814    0.317747    0.392013     0.006663
CU2202   CU        0.486254    0.350790    0.362580     0.006663
NI2203   NI        0.521343    0.317922    0.360738     0.004307
CU2204   CU        0.522250    0.350261    0.393922     0.006663
CU2205   CU        0.553163    0.317961    0.392766     0.006663
CU2206   CU        0.554208    0.351134    0.360815     0.006663
CU2207   CU        0.587462    0.315369    0.361750     0.006663
CU2208   CU        0.587388    0.348378    0.392751     0.006663
CU2209   CU        0.620498    0.316814    0.392307     0.006663
CU2210   CU        0.618715    0.350120    0.362774     0.006663
NI2211   NI        0.654970    0.316024    0.361787     0.004307
CU2212   CU        0.654644    0.349807    0.392246     0.006663
NI2213   NI        0.689210    0.316251    0.393307     0.004307
CU2214   CU        0.687357    0.350999    0.362102     0.006663
NI2215   NI        0.719752    0.316801    0.361966     0.004307
CU2216   CU        0.719648    0.348831    0.394259     0.006663
NI2217   NI        0.751920    0.316543    0.393704     0.004307
CU2218   CU        0.751463    0.349674    0.363028     0.006663
CU2219   CU        0.802451    0.308617    0.360092     0.006663
NI2220   NI        0.806602    0.347323    0.393290     0.004307
CU2221   CU        0.833236    0.310743    0.393065     0.006663
NI2222   NI        0.833643    0.343649    0.360757     0.004307
CU2223   CU        0.864972    0.312435    0.361995     0.006663
CU2224   CU        0.864662    0.345374    0.392251     0.006663
NI2225   NI        0.899236    0.311663    0.390485     0.004307
NI2226   NI        0.895384    0.346026    0.358850     0.004307
NI2227   NI        0.008488    0.376381    0.392378     0.004307
NI2228   NI        0.007939    0.415069    0.365358     0.004307
NI2229   NI        0.038964    0.380404    0.361880     0.004307
NI2230   NI        0.041265    0.413138    0.394023     0.004307
CU2231   CU        0.072064    0.380098    0.391614     0.006663
NI2232   NI        0.071122    0.414231    0.361084     0.004307
NI2233   NI        0.100810    0.381202    0.359843     0.004307
NI2234   NI        0.102819    0.415092    0.391836     0.004307
NI2235   NI        0.132900    0.380423    0.390726     0.004307
NI2236   NI        0.131064    0.413236    0.355178     0.004307
NI2237   NI        0.188101    0.382680    0.361563     0.004307
NI2238   NI        0.190036    0.417419    0.395703     0.004307
CU2239   CU        0.217870    0.382336    0.394476     0.006663
NI2240   NI        0.220359    0.415011    0.364777     0.004307
CU2241   CU        0.253315    0.381154    0.362180     0.006663
CU2242   CU        0.253704    0.415320    0.391535     0.006663
CU2243   CU        0.286503    0.382133    0.394548     0.006663
NI2244   NI        0.285801    0.416864    0.360142     0.004307
CU2245   CU        0.318877    0.384871    0.360364     0.006663
CU2246   CU        0.320936    0.415904    0.395593     0.006663
CU2247   CU        0.354520    0.382281    0.393246     0.006663
CU2248   CU        0.353534    0.416150    0.362463     0.006663
CU2249   CU        0.386932    0.383347    0.362005     0.006663
CU2250   CU        0.387807    0.416109    0.395807     0.006663
CU2251   CU        0.421233    0.384871    0.396207     0.006663
CU2252   CU        0.421079    0.417958    0.365152     0.006663
NI2253   NI        0.451410    0.382454    0.363741     0.004307
CU2254   CU        0.453992    0.416682    0.395059     0.006663
CU2255   CU        0.487882    0.382282    0.395982     0.006663
CU2256   CU        0.486937    0.417358    0.365328     0.006663
CU2257   CU        0.521327    0.384137    0.363744     0.006663
CU2258   CU        0.521343    0.416581    0.395432     0.006663
CU2259   CU        0.556332    0.382439    0.392782     0.006663
CU2260   CU        0.553289    0.415476    0.364205     0.006663
CU2261   CU        0.588301    0.385346    0.362992     0.006663
CU2262   CU        0.585814    0.418357    0.395217     0.006663
CU2263   CU        0.619894    0.383726    0.392463     0.006663
CU2264   CU        0.620703    0.416393    0.362814     0.006663
NI2265   NI        0.651960    0.382354    0.362147     0.004307
CU2266   CU        0.653034    0.417037    0.393738     0.006663
CU2267   CU        0.687329    0.382791    0.394115     0.006663
CU2268   CU        0.688111    0.417379    0.362945     0.006663
CU2269   CU        0.721743    0.382057    0.361696     0.006663
NI2270   NI        0.720951    0.419787    0.394646     0.004307
CU2271   CU        0.753056    0.384299    0.393277     0.006663
NI2272   NI        0.775848    0.414769    0.356896     0.004307
NI2273   NI        0.807238    0.382655    0.358903     0.004307
NI2274   NI        0.804066    0.414081    0.390797     0.004307
NI2275   NI        0.836245    0.381317    0.390771     0.004307
NI2276   NI        0.835352    0.418261    0.360496     0.004307
NI2277   NI        0.866070    0.379379    0.358744     0.004307
NI2278   NI        0.866233    0.417812    0.391241     0.004307
CU2279   CU        0.895281    0.381383    0.393205     0.006663
CU2280   CU        0.894944    0.416211    0.359641     0.006663
NI2281   NI        0.006718    0.449057    0.395847     0.004307
NI2282   NI        0.017420    0.489890    0.355877     0.004307
NI2283   NI        0.038646    0.447389    0.364643     0.004307
NI2284   NI        0.037018    0.483899    0.394186     0.004307
NI2285   NI        0.069156    0.450752    0.392775     0.004307
NI2286   NI        0.067321    0.485317    0.361659     0.004307
NI2287   NI        0.099979    0.447929    0.357836     0.004307
NI2288   NI        0.099692    0.486933    0.389882     0.004307
NI2289   NI        0.132498    0.450226    0.391064     0.004307
NI2290   NI        0.130369    0.484807    0.358927     0.004307
NI2291   NI        0.189597    0.450422    0.365706     0.004307
NI2292   NI        0.188605    0.485118    0.395299     0.004307
NI2293   NI        0.222101    0.449122    0.393100     0.004307
CU2294   CU        0.220005    0.482440    0.361338     0.006663
CU2295   CU        0.253687    0.449924    0.363569     0.006663
CU2296   CU        0.254140    0.482429    0.394972     0.006663
CU2297   CU        0.286550    0.449834    0.392791     0.006663
NI2298   NI        0.285897    0.482031    0.361718     0.004307
CU2299   CU        0.319050    0.448754    0.361399     0.006663
CU2300   CU        0.319821    0.483262    0.392958     0.006663
CU2301   CU        0.352521    0.450472    0.393814     0.006663
CU2302   CU        0.352755    0.484301    0.362793     0.006663
CU2303   CU        0.384839    0.451539    0.364997     0.006663
CU2304   CU        0.386257    0.482023    0.394601     0.006663
CU2305   CU        0.421315    0.450595    0.397323     0.006663
CU2306   CU        0.421030    0.484099    0.364965     0.006663
CU2307   CU        0.452768    0.450716    0.362072     0.006663
CU2308   CU        0.452526    0.482833    0.396224     0.006663
CU2309   CU        0.485314    0.451807    0.396583     0.006663
CU2310   CU        0.488180    0.483161    0.365803     0.006663
CU2311   CU        0.520900    0.450740    0.365007     0.006663
CU2312   CU        0.518701    0.485457    0.397410     0.006663
CU2313   CU        0.552957    0.451399    0.395148     0.006663
CU2314   CU        0.551918    0.484723    0.364353     0.006663
CU2315   CU        0.585691    0.451542    0.363531     0.006663
CU2316   CU        0.584351    0.483763    0.394926     0.006663
CU2317   CU        0.622702    0.450045    0.395274     0.006663
CU2318   CU        0.619920    0.485657    0.364635     0.006663
CU2319   CU        0.653136    0.449546    0.361951     0.006663
NI2320   NI        0.655377    0.483882    0.396048     0.004307
NI2321   NI        0.685962    0.451033    0.394723     0.004307
CU2322   CU        0.686267    0.481983    0.363432     0.006663
CU2323   CU        0.719921    0.448600    0.361876     0.006663
CU2324   CU        0.720426    0.482021    0.395673     0.006663
NI2325   NI        0.753313    0.452039    0.395076     0.004307
NI2326   NI        0.771237    0.489659    0.355797     0.004307
NI2327   NI        0.803984    0.452123    0.358252     0.004307
NI2328   NI        0.785124    0.484971    0.396646     0.004307
NI2329   NI        0.836674    0.450839    0.393971     0.004307
NI2330   NI        0.835267    0.486835    0.361084     0.004307
NI2331   NI        0.867450    0.452881    0.359709     0.004307
CU2332   CU        0.866433    0.489288    0.393090     0.006663
CU2333   CU        0.898037    0.447793    0.389301     0.006663
NI2334   NI        0.897391    0.487217    0.358813     0.004307
NI2335   NI        0.011652    0.525448    0.387611     0.004307
NI2336   NI        0.013148    0.558364    0.357339     0.004307
NI2337   NI        0.044798    0.525841    0.358368     0.004307
CU2338   CU        0.042078    0.557655    0.390858     0.006663
CU2339   CU        0.072466    0.523077    0.392858     0.006663
CU2340   CU        0.075704    0.557732    0.358769     0.006663
NI2341   NI        0.101961    0.519699    0.360159     0.004307
CU2342   CU        0.107337    0.556043    0.393183     0.006663
NI2343   NI        0.134898    0.517192    0.392502     0.004307
NI2344   NI        0.133083    0.554846    0.357776     0.004307
NI2345   NI        0.186669    0.513206    0.361402     0.004307
NI2346   NI        0.178276    0.559422    0.400086     0.004307
NI2347   NI        0.222151    0.515135    0.391342     0.004307
NI2348   NI        0.221151    0.547690    0.361609     0.004307
CU2349   CU        0.253947    0.515477    0.360158     0.006663
NI2350   NI        0.253807    0.546513    0.391874     0.004307
CU2351   CU        0.286285    0.513944    0.392628     0.006663
NI2352   NI        0.287032    0.550275    0.360771     0.004307
CU2353   CU        0.317635    0.514799    0.362375     0.006663
CU2354   CU        0.317873    0.550403    0.392785     0.006663
CU2355   CU        0.351048    0.515693    0.394341     0.006663
CU2356   CU        0.354531    0.548665    0.364920     0.006663
CU2357   CU        0.386514    0.519003    0.362164     0.006663
CU2358   CU        0.386897    0.549443    0.394716     0.006663
CU2359   CU        0.419774    0.517269    0.394972     0.006663
CU2360   CU        0.419137    0.552632    0.363512     0.006663
CU2361   CU        0.455034    0.518184    0.365170     0.006663
CU2362   CU        0.451518    0.555546    0.396413     0.006663
CU2363   CU        0.484679    0.519033    0.396219     0.006663
CU2364   CU        0.483978    0.553467    0.364149     0.006663
CU2365   CU        0.516494    0.518959    0.364788     0.006663
CU2366   CU        0.517314    0.553049    0.396332     0.006663
CU2367   CU        0.551470    0.518322    0.395623     0.006663
CU2368   CU        0.552494    0.551544    0.363266     0.006663
CU2369   CU        0.585699    0.516573    0.365519     0.006663
CU2370   CU        0.586489    0.550814    0.394871     0.006663
NI2371   NI        0.620285    0.518818    0.396005     0.004307
CU2372   CU        0.617980    0.551314    0.364206     0.006663
NI2373   NI        0.655518    0.516538    0.365154     0.004307
NI2374   NI        0.654176    0.551180    0.394529     0.004307
CU2375   CU        0.687658    0.518631    0.395999     0.006663
CU2376   CU        0.687398    0.552308    0.362543     0.006663
CU2377   CU        0.719376    0.520759    0.363716     0.006663
NI2378   NI        0.720113    0.553260    0.394491     0.004307
CU2379   CU        0.753205    0.516794    0.394222     0.006663
NI2380   NI        0.752696    0.553803    0.364959     0.004307
CU2381   CU        0.803983    0.522566    0.359228     0.006663
NI2382   NI        0.803611    0.557877    0.392505     0.004307
NI2383   NI        0.833170    0.524663    0.391066     0.004307
CU2384   CU        0.835056    0.558930    0.358406     0.006663
NI2385   NI        0.865807    0.522346    0.360634     0.004307
NI2386   NI        0.864592    0.557069    0.394244     0.004307
NI2387   NI        0.895103    0.521245    0.392954     0.004307
NI2388   NI        0.895142    0.557568    0.361768     0.004307
NI2389   NI        0.012728    0.590449    0.391650     0.004307
NI2390   NI        0.043794    0.590190    0.358253     0.004307
CU2391   CU        0.042668    0.627504    0.393906     0.006663
NI2392   NI        0.076513    0.591354    0.391442     0.004307
NI2393   NI        0.073802    0.624777    0.359325     0.004307
CU2394   CU        0.106465    0.591555    0.357912     0.006663
CU2395   CU        0.106105    0.625725    0.390714     0.006663
NI2396   NI        0.141416    0.586744    0.390490     0.004307
NI2397   NI        0.140746    0.624615    0.358544     0.004307
NI2398   NI        0.166136    0.587071    0.355158     0.004307
NI2399   NI        0.173539    0.625417    0.398178     0.004307
NI2400   NI        0.210197    0.592800    0.397288     0.004307
NI2401   NI        0.220925    0.616483    0.359120     0.004307
NI2402   NI        0.250322    0.581733    0.360314     0.004307
NI2403   NI        0.253571    0.615782    0.390628     0.004307
CU2404   CU        0.288057    0.584036    0.391454     0.006663
CU2405   CU        0.285064    0.617761    0.359492     0.006663
CU2406   CU        0.319287    0.586153    0.359807     0.006663
CU2407   CU        0.320894    0.616114    0.392735     0.006663
CU2408   CU        0.352534    0.585015    0.393632     0.006663
CU2409   CU        0.353181    0.618244    0.363255     0.006663
NI2410   NI        0.386314    0.583661    0.361933     0.004307
CU2411   CU        0.383433    0.619268    0.394221     0.006663
CU2412   CU        0.418691    0.587300    0.392056     0.006663
CU2413   CU        0.419046    0.620410    0.361817     0.006663
CU2414   CU        0.453143    0.588221    0.362829     0.006663
CU2415   CU        0.450144    0.619646    0.392451     0.006663
CU2416   CU        0.485944    0.586838    0.397664     0.006663
CU2417   CU        0.485878    0.620781    0.364025     0.006663
CU2418   CU        0.517880    0.587039    0.366695     0.006663
CU2419   CU        0.518833    0.617366    0.397295     0.006663
CU2420   CU        0.552210    0.582686    0.396940     0.006663
CU2421   CU        0.552420    0.618395    0.363102     0.006663
CU2422   CU        0.586887    0.584527    0.364090     0.006663
CU2423   CU        0.587250    0.616694    0.396423     0.006663
CU2424   CU        0.617788    0.584629    0.397244     0.006663
CU2425   CU        0.620314    0.616599    0.363648     0.006663
CU2426   CU        0.654131    0.584343    0.365795     0.006663
CU2427   CU        0.651743    0.615775    0.396836     0.006663
CU2428   CU        0.686707    0.585054    0.396664     0.006663
NI2429   NI        0.687631    0.618950    0.365307     0.004307
NI2430   NI        0.718630    0.584221    0.364268     0.004307
NI2431   NI        0.718598    0.617816    0.396253     0.004307
NI2432   NI        0.753228    0.587409    0.394548     0.004307
NI2433   NI        0.752095    0.620183    0.364565     0.004307
NI2434   NI        0.784616    0.583185    0.362492     0.004307
NI2435   NI        0.803051    0.629694    0.395804     0.004307
NI2436   NI        0.835083    0.591559    0.396260     0.004307
CU2437   CU        0.835286    0.628611    0.361231     0.006663
NI2438   NI        0.865023    0.592340    0.360580     0.004307
NI2439   NI        0.863452    0.628219    0.394125     0.004307
NI2440   NI        0.897313    0.591302    0.393027     0.004307
NI2441   NI        0.042621    0.658826    0.358185     0.004307
NI2442   NI        0.076264    0.658186    0.392652     0.004307
NI2443   NI        0.075620    0.694427    0.362003     0.004307
NI2444   NI        0.108893    0.661230    0.360562     0.004307
NI2445   NI        0.108381    0.694924    0.392961     0.004307
NI2446   NI        0.142958    0.661333    0.394951     0.004307
CU2447   CU        0.141695    0.696648    0.361017     0.006663
NI2448   NI        0.172751    0.659964    0.358946     0.004307
NI2449   NI        0.175035    0.694784    0.393386     0.004307
NI2450   NI        0.206886    0.662441    0.396210     0.004307
NI2451   NI        0.205390    0.698228    0.363663     0.004307
NI2452   NI        0.251714    0.650670    0.360431     0.004307
CU2453   CU        0.240213    0.701678    0.394434     0.006663
NI2454   NI        0.285091    0.649876    0.390111     0.004307
NI2455   NI        0.284399    0.682000    0.358759     0.004307
CU2456   CU        0.318454    0.650751    0.359678     0.006663
NI2457   NI        0.315375    0.681805    0.391428     0.004307
CU2458   CU        0.351513    0.653207    0.391382     0.006663
CU2459   CU        0.352396    0.685186    0.358716     0.006663
CU2460   CU        0.386594    0.650177    0.361079     0.006663
CU2461   CU        0.385796    0.683920    0.393888     0.006663
CU2462   CU        0.417312    0.651412    0.392653     0.006663
CU2463   CU        0.417838    0.684128    0.364197     0.006663
CU2464   CU        0.449946    0.652721    0.362848     0.006663
CU2465   CU        0.451644    0.683051    0.394948     0.006663
CU2466   CU        0.485016    0.651975    0.393763     0.006663
CU2467   CU        0.487048    0.685790    0.366398     0.006663
CU2468   CU        0.518808    0.653603    0.363082     0.006663
NI2469   NI        0.523662    0.699075    0.392162     0.004307
CU2470   CU        0.552880    0.650099    0.397285     0.006663
NI2471   NI        0.557922    0.697711    0.360886     0.004307
NI2472   NI        0.587402    0.648200    0.367005     0.004307
NI2473   NI        0.586567    0.682367    0.396848     0.004307
CU2474   CU        0.618640    0.648676    0.397330     0.006663
CU2475   CU        0.633619    0.691896    0.355218     0.006663
NI2476   NI        0.652047    0.649383    0.365762     0.004307
NI2477   NI        0.651159    0.683242    0.397449     0.004307
CU2478   CU        0.684494    0.649063    0.396964     0.006663
NI2479   NI        0.698429    0.694201    0.355853     0.004307
NI2480   NI        0.716961    0.652341    0.365270     0.004307
NI2481   NI        0.715007    0.684915    0.395122     0.004307
NI2482   NI        0.768502    0.665624    0.396995     0.004307
CU2483   CU        0.767803    0.697006    0.359113     0.006663
CU2484   CU        0.800871    0.662230    0.364058     0.006663
NI2485   NI        0.800940    0.696415    0.394277     0.004307
NI2486   NI        0.833901    0.662425    0.392181     0.004307
CU2487   CU        0.831406    0.695283    0.363165     0.006663
NI2488   NI        0.865795    0.661031    0.361707     0.004307
NI2489   NI        0.078502    0.727758    0.394075     0.004307
NI2490   NI        0.108228    0.726872    0.362897     0.004307
NI2491   NI        0.108891    0.763190    0.391446     0.004307
NI2492   NI        0.140382    0.728829    0.392173     0.004307
NI2493   NI        0.139464    0.763579    0.359475     0.004307
NI2494   NI        0.172474    0.731420    0.358312     0.004307
NI2495   NI        0.173254    0.761379    0.393030     0.004307
NI2496   NI        0.205332    0.728828    0.394295     0.004307
NI2497   NI        0.206149    0.763862    0.359774     0.004307
NI2498   NI        0.237826    0.733036    0.363082     0.004307
NI2499   NI        0.240226    0.764518    0.391615     0.004307
NI2500   NI        0.273818    0.734741    0.390789     0.004307
NI2501   NI        0.276795    0.764741    0.357559     0.004307
NI2502   NI        0.312343    0.736826    0.357743     0.004307
CU2503   CU        0.310830    0.766641    0.390462     0.006663
NI2504   NI        0.354504    0.715491    0.394041     0.004307
CU2505   CU        0.344819    0.768019    0.359438     0.006663
NI2506   NI        0.387229    0.718113    0.362324     0.004307
NI2507   NI        0.389834    0.748200    0.394939     0.004307
NI2508   NI        0.420810    0.716539    0.392566     0.004307
CU2509   CU        0.418441    0.764932    0.361024     0.006663
NI2510   NI        0.452850    0.735643    0.360888     0.004307
NI2511   NI        0.454562    0.763015    0.393580     0.004307
NI2512   NI        0.491385    0.733505    0.390936     0.004307
NI2513   NI        0.489152    0.764777    0.359464     0.004307
NI2514   NI        0.525363    0.733487    0.359826     0.004307
NI2515   NI        0.522592    0.767326    0.395071     0.004307
NI2516   NI        0.556563    0.729386    0.393788     0.004307
NI2517   NI        0.559019    0.765968    0.360998     0.004307
NI2518   NI        0.587866    0.731611    0.362107     0.004307
NI2519   NI        0.589924    0.764082    0.393871     0.004307
CU2520   CU        0.625284    0.737187    0.393995     0.006663
NI2521   NI        0.624358    0.766312    0.360665     0.004307
NI2522   NI        0.666806    0.728602    0.356130     0.004307
NI2523   NI        0.661745    0.766439    0.392049     0.004307
NI2524   NI        0.698883    0.730902    0.385575     0.004307
NI2525   NI        0.692479    0.764937    0.360065     0.004307
NI2526   NI        0.732913    0.731377    0.357217     0.004307
NI2527   NI        0.729893    0.763879    0.391859     0.004307
NI2528   NI        0.766788    0.729566    0.395321     0.004307
NI2529   NI        0.766866    0.760794    0.360542     0.004307
NI2530   NI        0.800777    0.728955    0.361994     0.004307
NI2531   NI        0.798744    0.762755    0.394735     0.004307
NI2532   NI        0.831883    0.729000    0.395185     0.004307
CU2533   CU        0.143626    0.792898    0.393583     0.006663
NI2534   NI        0.174503    0.794851    0.359622     0.004307
NI2535   NI        0.176524    0.863006    0.429429     0.004307
NI2536   NI        0.205115    0.796486    0.392791     0.004307
NI2537   NI        0.209404    0.828155    0.358772     0.004307
NI2538   NI        0.242793    0.797955    0.360311     0.004307
NI2539   NI        0.239668    0.829977    0.392039     0.004307
NI2540   NI        0.274989    0.797465    0.389796     0.004307
NI2541   NI        0.276212    0.828998    0.359044     0.004307
CU2542   CU        0.311637    0.798370    0.359948     0.006663
NI2543   NI        0.314098    0.829507    0.392165     0.004307
NI2544   NI        0.349845    0.799392    0.391476     0.004307
NI2545   NI        0.347605    0.829550    0.359610     0.004307
NI2546   NI        0.384772    0.798945    0.358738     0.004307
NI2547   NI        0.383325    0.830861    0.391692     0.004307
NI2548   NI        0.418907    0.799550    0.392367     0.004307
NI2549   NI        0.417292    0.831997    0.359709     0.004307
NI2550   NI        0.452359    0.798376    0.360659     0.004307
NI2551   NI        0.454516    0.830293    0.393585     0.004307
NI2552   NI        0.487235    0.797643    0.393790     0.004307
NI2553   NI        0.489705    0.828943    0.361560     0.004307
NI2554   NI        0.524283    0.796275    0.360870     0.004307
NI2555   NI        0.522309    0.830195    0.392343     0.004307
NI2556   NI        0.556079    0.799116    0.394365     0.004307
NI2557   NI        0.557241    0.827845    0.361188     0.004307
NI2558   NI        0.590810    0.797512    0.359234     0.004307
NI2559   NI        0.589346    0.829734    0.392016     0.004307
NI2560   NI        0.628103    0.795858    0.393376     0.004307
NI2561   NI        0.625393    0.828862    0.360246     0.004307
NI2562   NI        0.659733    0.798356    0.359286     0.004307
NI2563   NI        0.661454    0.828040    0.394918     0.004307
NI2564   NI        0.695921    0.795377    0.393499     0.004307
NI2565   NI        0.695662    0.827892    0.360818     0.004307
NI2566   NI        0.728008    0.796120    0.362125     0.004307
NI2567   NI        0.730958    0.829921    0.392969     0.004307
NI2568   NI        0.761107    0.796353    0.391510     0.004307
NI2569   NI        0.243566    0.860321    0.361733     0.004307
NI2570   NI        0.278250    0.861362    0.391622     0.004307
NI2571   NI        0.312487    0.860048    0.359359     0.004307
NI2572   NI        0.315451    0.891221    0.390997     0.004307
NI2573   NI        0.347929    0.861288    0.391681     0.004307
NI2574   NI        0.345783    0.893468    0.356969     0.004307
NI2575   NI        0.380415    0.862379    0.359652     0.004307
NI2576   NI        0.380955    0.892136    0.390485     0.004307
NI2577   NI        0.417855    0.862916    0.391598     0.004307
NI2578   NI        0.416247    0.892321    0.356496     0.004307
NI2579   NI        0.453529    0.861727    0.359128     0.004307
NI2580   NI        0.453857    0.893107    0.391479     0.004307
NI2581   NI        0.488234    0.863208    0.392821     0.004307
NI2582   NI        0.487952    0.892367    0.357210     0.004307
NI2583   NI        0.523464    0.862149    0.357121     0.004307
NI2584   NI        0.523878    0.891805    0.389344     0.004307
CU2585   CU        0.559273    0.862367    0.394868     0.006663
NI2586   NI        0.558615    0.890454    0.361690     0.004307
NI2587   NI        0.593266    0.862288    0.362870     0.004307
NI2588   NI        0.592370    0.894355    0.392970     0.004307
NI2589   NI        0.624431    0.860604    0.395660     0.004307
NI2590   NI        0.657361    0.861593    0.360780     0.004307
NI2591   NI        0.314995    0.007677    0.457946     0.004307
NI2592   NI        0.343897    0.010924    0.423597     0.004307
NI2593   NI        0.378467    0.009111    0.458070     0.004307
NI2594   NI        0.421056    0.007217    0.425349     0.004307
NI2595   NI        0.451705    0.005751    0.455725     0.004307
NI2596   NI        0.488741    0.008232    0.421509     0.004307
NI2597   NI        0.525431    0.011559    0.462835     0.004307
CU2598   CU        0.558111    0.011733    0.424086     0.006663
NI2599   NI        0.592933    0.008730    0.458487     0.004307
NI2600   NI        0.214042    0.038962    0.456366     0.004307
NI2601   NI        0.213741    0.071985    0.424845     0.004307
NI2602   NI        0.245408    0.039142    0.426066     0.004307
NI2603   NI        0.246559    0.070731    0.457876     0.004307
CU2604   CU        0.280443    0.039704    0.458861     0.006663
CU2605   CU        0.278232    0.072223    0.424876     0.006663
NI2606   NI        0.308901    0.038812    0.423968     0.004307
NI2607   NI        0.313009    0.071141    0.458100     0.004307
CU2608   CU        0.346341    0.040103    0.457229     0.006663
NI2609   NI        0.343651    0.071753    0.423868     0.004307
NI2610   NI        0.381602    0.038261    0.423447     0.004307
NI2611   NI        0.385095    0.069074    0.458672     0.004307
NI2612   NI        0.416915    0.038071    0.457798     0.004307
NI2613   NI        0.417532    0.067554    0.424406     0.004307
NI2614   NI        0.453630    0.038515    0.425057     0.004307
NI2615   NI        0.455313    0.067799    0.457014     0.004307
NI2616   NI        0.488962    0.037119    0.455805     0.004307
CU2617   CU        0.488330    0.070950    0.424980     0.006663
CU2618   CU        0.523641    0.040583    0.423037     0.006663
CU2619   CU        0.524806    0.071057    0.454547     0.006663
NI2620   NI        0.559137    0.040195    0.456691     0.004307
NI2621   NI        0.559720    0.068786    0.423953     0.004307
NI2622   NI        0.596985    0.039745    0.424505     0.004307
NI2623   NI        0.592569    0.071542    0.458262     0.004307
NI2624   NI        0.629117    0.043038    0.459946     0.004307
NI2625   NI        0.629556    0.071048    0.422595     0.004307
NI2626   NI        0.665849    0.041279    0.424476     0.004307
NI2627   NI        0.661059    0.073173    0.453192     0.004307
NI2628   NI        0.697779    0.072235    0.421024     0.004307
NI2629   NI        0.733893    0.074402    0.455574     0.004307
NI2630   NI        0.109184    0.138220    0.459993     0.004307
NI2631   NI        0.144791    0.104872    0.461105     0.004307
NI2632   NI        0.142298    0.136182    0.423257     0.004307
NI2633   NI        0.176234    0.103537    0.423564     0.004307
NI2634   NI        0.175223    0.136066    0.457785     0.004307
NI2635   NI        0.211157    0.104655    0.456789     0.004307
NI2636   NI        0.207423    0.135389    0.424746     0.004307
NI2637   NI        0.243560    0.104174    0.423625     0.004307
NI2638   NI        0.242701    0.136200    0.458910     0.004307
NI2639   NI        0.278190    0.103794    0.458384     0.004307
NI2640   NI        0.275880    0.134921    0.428130     0.004307
NI2641   NI        0.311911    0.102385    0.426609     0.004307
NI2642   NI        0.314726    0.130228    0.458120     0.004307
NI2643   NI        0.346720    0.100754    0.459937     0.004307
CU2644   CU        0.350039    0.128114    0.423421     0.006663
CU2645   CU        0.384181    0.098694    0.425481     0.006663
CU2646   CU        0.384935    0.128456    0.458221     0.006663
CU2647   CU        0.420302    0.098366    0.457639     0.006663
CU2648   CU        0.419705    0.129278    0.424659     0.006663
CU2649   CU        0.453993    0.100617    0.423349     0.006663
CU2650   CU        0.453796    0.129328    0.458140     0.006663
CU2651   CU        0.488839    0.099050    0.458328     0.006663
NI2652   NI        0.487426    0.132551    0.424325     0.004307
CU2653   CU        0.522961    0.103952    0.423780     0.006663
NI2654   NI        0.524032    0.128107    0.458714     0.004307
NI2655   NI        0.560423    0.102055    0.455327     0.004307
NI2656   NI        0.559160    0.134057    0.422553     0.004307
CU2657   CU        0.593180    0.101944    0.422578     0.006663
NI2658   NI        0.593750    0.133693    0.453981     0.004307
NI2659   NI        0.627718    0.103130    0.453706     0.004307
NI2660   NI        0.628824    0.135257    0.423146     0.004307
NI2661   NI        0.663829    0.104603    0.422031     0.004307
NI2662   NI        0.664121    0.135475    0.453455     0.004307
NI2663   NI        0.695784    0.102416    0.452539     0.004307
NI2664   NI        0.699659    0.138335    0.422381     0.004307
NI2665   NI        0.732044    0.104315    0.421396     0.004307
NI2666   NI        0.733182    0.137155    0.454509     0.004307
NI2667   NI        0.764542    0.105171    0.454788     0.004307
CU2668   CU        0.766127    0.139334    0.424383     0.006663
NI2669   NI        0.800266    0.139125    0.457683     0.004307
NI2670   NI        0.080620    0.171138    0.457726     0.004307
NI2671   NI        0.077549    0.204325    0.426150     0.004307
NI2672   NI        0.109203    0.172801    0.426166     0.004307
NI2673   NI        0.108233    0.206336    0.456909     0.004307
NI2674   NI        0.141611    0.170502    0.459349     0.004307
CU2675   CU        0.141894    0.204794    0.424996     0.006663
NI2676   NI        0.173885    0.169130    0.423833     0.004307
NI2677   NI        0.172216    0.204175    0.458926     0.004307
NI2678   NI        0.204119    0.169607    0.456803     0.004307
NI2679   NI        0.202317    0.203884    0.426349     0.004307
NI2680   NI        0.267581    0.180067    0.423615     0.004307
NI2681   NI        0.258685    0.216479    0.454616     0.004307
NI2682   NI        0.281703    0.166045    0.461161     0.004307
CU2683   CU        0.288401    0.220250    0.422908     0.006663
CU2684   CU        0.311154    0.160298    0.421737     0.006663
NI2685   NI        0.320459    0.219081    0.457012     0.004307
NI2686   NI        0.325750    0.174389    0.457278     0.004307
CU2687   CU        0.351289    0.219100    0.421391     0.006663
NI2688   NI        0.356376    0.173039    0.425974     0.004307
CU2689   CU        0.387106    0.216461    0.454151     0.006663
NI2690   NI        0.421329    0.185411    0.454814     0.004307
NI2691   NI        0.419730    0.213842    0.423183     0.004307
CU2692   CU        0.453745    0.182363    0.423452     0.006663
NI2693   NI        0.452293    0.217037    0.453754     0.004307
NI2694   NI        0.485728    0.184792    0.452934     0.004307
CU2695   CU        0.488724    0.215257    0.424327     0.006663
NI2696   NI        0.520389    0.183826    0.426564     0.004307
NI2697   NI        0.518893    0.216586    0.454464     0.004307
NI2698   NI        0.553067    0.187589    0.454835     0.004307
CU2699   CU        0.553065    0.219256    0.423364     0.006663
NI2700   NI        0.587421    0.184691    0.424977     0.004307
CU2701   CU        0.586681    0.217874    0.454654     0.006663
CU2702   CU        0.617354    0.181499    0.456066     0.006663
NI2703   NI        0.619834    0.214587    0.423839     0.004307
NI2704   NI        0.667429    0.168854    0.422789     0.004307
CU2705   CU        0.648915    0.214130    0.459168     0.006663
NI2706   NI        0.702874    0.173697    0.454448     0.004307
NI2707   NI        0.681715    0.210631    0.430657     0.004307
CU2708   CU        0.734979    0.173796    0.423574     0.006663
NI2709   NI        0.736618    0.205433    0.457862     0.004307
NI2710   NI        0.767587    0.172401    0.456463     0.004307
NI2711   NI        0.766699    0.206062    0.425145     0.004307
CU2712   CU        0.800720    0.172017    0.425059     0.006663
NI2713   NI        0.799761    0.205960    0.455631     0.004307
NI2714   NI        0.830742    0.172772    0.456762     0.004307
NI2715   NI        0.832992    0.205954    0.426763     0.004307
NI2716   NI        0.011140    0.277405    0.425266     0.004307
NI2717   NI        0.042491    0.275275    0.456146     0.004307
NI2718   NI        0.077033    0.241150    0.459482     0.004307
NI2719   NI        0.076277    0.274755    0.425244     0.004307
CU2720   CU        0.107545    0.239234    0.423844     0.006663
NI2721   NI        0.107414    0.274309    0.457315     0.004307
NI2722   NI        0.138636    0.238416    0.457541     0.004307
NI2723   NI        0.137128    0.275151    0.423850     0.004307
NI2724   NI        0.172736    0.237285    0.428595     0.004307
CU2725   CU        0.169709    0.274607    0.457982     0.006663
CU2726   CU        0.203081    0.239137    0.459142     0.006663
CU2727   CU        0.219736    0.283681    0.423923     0.006663
CU2728   CU        0.255982    0.249458    0.424320     0.006663
NI2729   NI        0.251995    0.282978    0.453090     0.004307
NI2730   NI        0.287245    0.251556    0.455521     0.004307
CU2731   CU        0.286528    0.283706    0.425414     0.006663
CU2732   CU        0.319053    0.250708    0.425261     0.006663
CU2733   CU        0.320205    0.284566    0.455532     0.006663
CU2734   CU        0.356773    0.250559    0.457848     0.006663
CU2735   CU        0.355021    0.280286    0.425482     0.006663
CU2736   CU        0.389009    0.247666    0.422116     0.006663
CU2737   CU        0.387027    0.283477    0.456759     0.006663
CU2738   CU        0.420733    0.249087    0.454070     0.006663
CU2739   CU        0.420517    0.282357    0.424216     0.006663
CU2740   CU        0.454830    0.249096    0.422675     0.006663
CU2741   CU        0.456122    0.283212    0.455809     0.006663
CU2742   CU        0.486882    0.248734    0.454691     0.006663
CU2743   CU        0.487601    0.282321    0.423637     0.006663
CU2744   CU        0.519677    0.251202    0.422770     0.006663
CU2745   CU        0.522745    0.284280    0.453759     0.006663
CU2746   CU        0.555356    0.251944    0.454842     0.006663
CU2747   CU        0.554587    0.281742    0.424042     0.006663
CU2748   CU        0.589070    0.249614    0.421962     0.006663
CU2749   CU        0.586580    0.285406    0.454930     0.006663
NI2750   NI        0.619638    0.250008    0.456868     0.004307
CU2751   CU        0.622312    0.284221    0.426148     0.006663
CU2752   CU        0.653165    0.246410    0.425264     0.006663
CU2753   CU        0.652087    0.283946    0.457540     0.006663
CU2754   CU        0.703045    0.240076    0.461056     0.006663
NI2755   NI        0.684627    0.283394    0.424732     0.004307
NI2756   NI        0.736366    0.240553    0.425774     0.004307
NI2757   NI        0.736705    0.275268    0.461692     0.004307
CU2758   CU        0.767533    0.239251    0.458807     0.006663
NI2759   NI        0.768088    0.273886    0.430381     0.004307
NI2760   NI        0.798243    0.241286    0.424438     0.004307
NI2761   NI        0.799819    0.272621    0.459110     0.004307
NI2762   NI        0.832000    0.243073    0.456909     0.004307
NI2763   NI        0.831348    0.273816    0.422375     0.004307
NI2764   NI        0.863389    0.243497    0.423430     0.004307
NI2765   NI        0.865505    0.274808    0.458076     0.004307
NI2766   NI        0.010681    0.308495    0.456445     0.004307
NI2767   NI        0.012424    0.344667    0.427262     0.004307
NI2768   NI        0.044452    0.308462    0.426123     0.004307
NI2769   NI        0.042692    0.342580    0.457688     0.004307
CU2770   CU        0.075220    0.307703    0.457627     0.006663
NI2771   NI        0.073633    0.343614    0.425492     0.004307
NI2772   NI        0.105766    0.310082    0.424688     0.004307
NI2773   NI        0.105190    0.345345    0.458134     0.004307
CU2774   CU        0.137072    0.309677    0.456314     0.006663
NI2775   NI        0.136686    0.344661    0.424389     0.004307
NI2776   NI        0.172191    0.309129    0.428863     0.004307
NI2777   NI        0.185873    0.349289    0.459077     0.004307
NI2778   NI        0.218492    0.316501    0.458651     0.004307
NI2779   NI        0.219036    0.349423    0.427149     0.004307
CU2780   CU        0.252833    0.316743    0.422888     0.006663
CU2781   CU        0.253053    0.347302    0.456968     0.006663
NI2782   NI        0.286791    0.315177    0.456501     0.004307
CU2783   CU        0.286287    0.349325    0.424384     0.006663
CU2784   CU        0.319134    0.318637    0.425021     0.006663
NI2785   NI        0.317784    0.350606    0.457560     0.004307
CU2786   CU        0.353633    0.317203    0.454780     0.006663
CU2787   CU        0.354941    0.352354    0.424784     0.006663
CU2788   CU        0.386394    0.314971    0.425784     0.006663
CU2789   CU        0.388146    0.350310    0.454572     0.006663
CU2790   CU        0.422264    0.315354    0.456193     0.006663
CU2791   CU        0.420429    0.349899    0.424659     0.006663
CU2792   CU        0.454952    0.315255    0.424840     0.006663
CU2793   CU        0.456615    0.348996    0.455890     0.006663
NI2794   NI        0.488909    0.316593    0.456355     0.004307
CU2795   CU        0.487106    0.349557    0.424589     0.006663
CU2796   CU        0.521605    0.315975    0.423698     0.006663
CU2797   CU        0.519687    0.349842    0.455451     0.006663
CU2798   CU        0.552237    0.319371    0.456711     0.006663
CU2799   CU        0.555217    0.350268    0.424023     0.006663
CU2800   CU        0.586026    0.316387    0.423286     0.006663
NI2801   NI        0.586472    0.348767    0.453986     0.004307
CU2802   CU        0.622291    0.317828    0.456686     0.006663
CU2803   CU        0.621053    0.351341    0.424788     0.006663
CU2804   CU        0.651657    0.317424    0.423933     0.006663
CU2805   CU        0.654137    0.350391    0.457753     0.006663
NI2806   NI        0.686862    0.319605    0.454118     0.004307
CU2807   CU        0.687505    0.352384    0.424819     0.006663
NI2808   NI        0.720471    0.315044    0.427286     0.004307
CU2809   CU        0.719728    0.350381    0.454911     0.006663
NI2810   NI        0.771996    0.309816    0.463974     0.004307
NI2811   NI        0.752763    0.352108    0.422958     0.004307
CU2812   CU        0.800600    0.307396    0.426142     0.006663
CU2813   CU        0.807277    0.341991    0.461683     0.006663
CU2814   CU        0.832786    0.305643    0.457814     0.006663
NI2815   NI        0.833770    0.344481    0.427130     0.004307
NI2816   NI        0.863347    0.307751    0.425626     0.004307
NI2817   NI        0.863408    0.341136    0.455826     0.004307
NI2818   NI        0.895615    0.311244    0.459399     0.004307
NI2819   NI        0.893669    0.340569    0.425293     0.004307
NI2820   NI        0.009643    0.379379    0.457364     0.004307
NI2821   NI        0.010372    0.415892    0.424865     0.004307
NI2822   NI        0.040046    0.379768    0.426855     0.004307
NI2823   NI        0.038562    0.414210    0.456376     0.004307
CU2824   CU        0.072218    0.379534    0.458592     0.006663
NI2825   NI        0.071030    0.413162    0.425730     0.004307
NI2826   NI        0.103371    0.377553    0.423504     0.004307
NI2827   NI        0.101048    0.414468    0.457831     0.004307
NI2828   NI        0.134772    0.381783    0.457221     0.004307
NI2829   NI        0.131840    0.414467    0.426676     0.004307
NI2830   NI        0.165352    0.381380    0.426796     0.004307
NI2831   NI        0.171267    0.415503    0.455204     0.004307
NI2832   NI        0.222168    0.379924    0.458901     0.004307
CU2833   CU        0.222501    0.415356    0.425561     0.006663
CU2834   CU        0.253334    0.382072    0.426917     0.006663
CU2835   CU        0.251625    0.414753    0.458062     0.006663
NI2836   NI        0.284099    0.382906    0.456936     0.004307
CU2837   CU        0.284580    0.418072    0.424112     0.006663
CU2838   CU        0.320652    0.383713    0.425979     0.006663
CU2839   CU        0.317044    0.415313    0.457665     0.006663
CU2840   CU        0.352950    0.384359    0.456419     0.006663
CU2841   CU        0.353154    0.417947    0.428779     0.006663
CU2842   CU        0.386430    0.385447    0.425697     0.006663
CU2843   CU        0.387551    0.417604    0.456568     0.006663
CU2844   CU        0.421243    0.383408    0.457939     0.006663
CU2845   CU        0.419543    0.416561    0.427921     0.006663
CU2846   CU        0.455792    0.381461    0.426630     0.006663
CU2847   CU        0.453593    0.414275    0.457500     0.006663
CU2848   CU        0.488029    0.382874    0.459096     0.006663
NI2849   NI        0.484318    0.415334    0.426442     0.004307
CU2850   CU        0.519234    0.382597    0.426762     0.006663
CU2851   CU        0.521034    0.416641    0.455435     0.006663
NI2852   NI        0.552655    0.381987    0.456361     0.004307
CU2853   CU        0.552276    0.415442    0.425291     0.006663
CU2854   CU        0.588082    0.385784    0.425428     0.006663
NI2855   NI        0.584162    0.417284    0.458383     0.004307
CU2856   CU        0.619914    0.383891    0.457449     0.006663
CU2857   CU        0.622439    0.418053    0.426373     0.006663
CU2858   CU        0.653371    0.382883    0.428515     0.006663
CU2859   CU        0.655432    0.416448    0.459575     0.006663
CU2860   CU        0.687105    0.381396    0.457197     0.006663
CU2861   CU        0.688337    0.417499    0.426587     0.006663
CU2862   CU        0.720336    0.384269    0.425191     0.006663
NI2863   NI        0.719518    0.416228    0.456606     0.004307
NI2864   NI        0.753452    0.384453    0.454637     0.004307
CU2865   CU        0.753018    0.418188    0.426401     0.006663
NI2866   NI        0.786155    0.383637    0.425000     0.004307
CU2867   CU        0.785447    0.418445    0.456295     0.006663
CU2868   CU        0.836832    0.377375    0.458887     0.006663
NI2869   NI        0.837633    0.416506    0.421482     0.004307
CU2870   CU        0.865650    0.374954    0.425722     0.006663
CU2871   CU        0.865198    0.414936    0.455408     0.006663
CU2872   CU        0.917591    0.378619    0.430817     0.006663
NI2873   NI        0.901725    0.418215    0.419637     0.004307
NI2874   NI        0.008003    0.450013    0.457713     0.004307
NI2875   NI        0.008406    0.483028    0.427580     0.004307
CU2876   CU        0.040221    0.450449    0.424149     0.006663
CU2877   CU        0.039502    0.482839    0.456904     0.006663
CU2878   CU        0.071563    0.448310    0.456777     0.006663
CU2879   CU        0.072651    0.487803    0.423502     0.006663
NI2880   NI        0.102019    0.449923    0.423094     0.004307
CU2881   CU        0.104150    0.485469    0.456590     0.006663
NI2882   NI        0.133852    0.451054    0.453560     0.004307
NI2883   NI        0.130978    0.482962    0.420548     0.004307
CU2884   CU        0.190116    0.451887    0.425696     0.006663
NI2885   NI        0.189811    0.483328    0.456047     0.004307
NI2886   NI        0.220558    0.450861    0.455971     0.004307
NI2887   NI        0.221618    0.485109    0.426647     0.004307
NI2888   NI        0.253061    0.450949    0.426442     0.004307
CU2889   CU        0.251122    0.483214    0.459139     0.006663
CU2890   CU        0.286007    0.450174    0.458536     0.006663
CU2891   CU        0.285648    0.483803    0.425901     0.006663
CU2892   CU        0.319619    0.448608    0.425193     0.006663
NI2893   NI        0.318211    0.483350    0.458131     0.004307
CU2894   CU        0.352485    0.452547    0.458613     0.006663
CU2895   CU        0.351886    0.483320    0.426022     0.006663
NI2896   NI        0.385840    0.450230    0.425763     0.004307
CU2897   CU        0.386133    0.484634    0.457733     0.006663
CU2898   CU        0.420630    0.449944    0.456790     0.006663
CU2899   CU        0.421849    0.483554    0.427707     0.006663
CU2900   CU        0.453429    0.450316    0.428398     0.006663
CU2901   CU        0.454566    0.484322    0.456808     0.006663
CU2902   CU        0.486781    0.449989    0.455391     0.006663
CU2903   CU        0.486601    0.484381    0.424294     0.006663
CU2904   CU        0.519728    0.450518    0.424570     0.006663
CU2905   CU        0.518559    0.483767    0.457983     0.006663
CU2906   CU        0.551802    0.452317    0.457525     0.006663
CU2907   CU        0.551117    0.485153    0.427208     0.006663
CU2908   CU        0.585856    0.449138    0.427531     0.006663
CU2909   CU        0.585352    0.484799    0.457892     0.006663
NI2910   NI        0.619682    0.450866    0.455327     0.004307
CU2911   CU        0.619440    0.482544    0.425912     0.006663
CU2912   CU        0.654686    0.450097    0.427171     0.006663
CU2913   CU        0.652844    0.485375    0.456128     0.006663
CU2914   CU        0.687466    0.452257    0.457571     0.006663
CU2915   CU        0.687826    0.485092    0.426265     0.006663
NI2916   NI        0.719896    0.452406    0.426042     0.004307
CU2917   CU        0.720901    0.486108    0.456653     0.006663
NI2918   NI        0.753254    0.450877    0.456666     0.004307
CU2919   CU        0.752903    0.483245    0.425838     0.006663
NI2920   NI        0.787036    0.452176    0.426556     0.004307
NI2921   NI        0.785765    0.485902    0.456880     0.004307
NI2922   NI        0.840090    0.452120    0.456272     0.004307
NI2923   NI        0.837389    0.483541    0.426309     0.004307
NI2924   NI        0.870148    0.451223    0.423002     0.004307
NI2925   NI        0.868752    0.488643    0.457305     0.004307
NI2926   NI        0.899294    0.446315    0.456138     0.004307
NI2927   NI        0.897896    0.491508    0.424174     0.004307
NI2928   NI        0.012863    0.521267    0.455707     0.004307
NI2929   NI        0.011390    0.558287    0.423068     0.004307
NI2930   NI        0.041628    0.519612    0.424851     0.004307
NI2931   NI        0.042305    0.556238    0.455664     0.004307
NI2932   NI        0.074124    0.521657    0.455510     0.004307
NI2933   NI        0.074045    0.556808    0.423473     0.004307
NI2934   NI        0.105748    0.521050    0.426350     0.004307
NI2935   NI        0.107165    0.557944    0.457051     0.004307
NI2936   NI        0.138107    0.525244    0.458146     0.004307
NI2937   NI        0.138829    0.555725    0.426228     0.004307
NI2938   NI        0.189998    0.517061    0.425568     0.004307
CU2939   CU        0.173677    0.556931    0.457310     0.006663
CU2940   CU        0.220120    0.517078    0.456820     0.006663
CU2941   CU        0.210678    0.555543    0.430883     0.006663
CU2942   CU        0.253635    0.513921    0.423865     0.006663
CU2943   CU        0.242225    0.559867    0.460787     0.006663
CU2944   CU        0.284601    0.515732    0.460172     0.006663
CU2945   CU        0.284023    0.547973    0.422805     0.006663
CU2946   CU        0.320090    0.518368    0.423641     0.006663
CU2947   CU        0.317666    0.548578    0.457091     0.006663
CU2948   CU        0.351774    0.516458    0.455146     0.006663
CU2949   CU        0.351044    0.551782    0.424338     0.006663
CU2950   CU        0.387840    0.515582    0.424794     0.006663
CU2951   CU        0.384510    0.550621    0.455207     0.006663
CU2952   CU        0.418443    0.516674    0.459808     0.006663
CU2953   CU        0.418061    0.549838    0.428286     0.006663
CU2954   CU        0.452987    0.518868    0.427988     0.006663
CU2955   CU        0.452236    0.553365    0.460031     0.006663
CU2956   CU        0.485101    0.519035    0.458944     0.006663
CU2957   CU        0.483557    0.552757    0.427154     0.006663
CU2958   CU        0.516981    0.520102    0.428534     0.006663
CU2959   CU        0.519630    0.552467    0.460151     0.006663
CU2960   CU        0.551444    0.516648    0.458113     0.006663
CU2961   CU        0.551056    0.550895    0.427679     0.006663
CU2962   CU        0.586198    0.514838    0.427849     0.006663
NI2963   NI        0.584911    0.552145    0.458603     0.004307
CU2964   CU        0.619940    0.516314    0.455490     0.006663
CU2965   CU        0.620038    0.550122    0.426560     0.006663
NI2966   NI        0.654466    0.517550    0.425329     0.004307
CU2967   CU        0.655654    0.552097    0.455312     0.006663
CU2968   CU        0.687367    0.517181    0.458919     0.006663
NI2969   NI        0.686080    0.550432    0.426374     0.004307
NI2970   NI        0.721869    0.515507    0.424184     0.004307
CU2971   CU        0.720250    0.549736    0.455304     0.006663
NI2972   NI        0.752398    0.517534    0.456260     0.004307
CU2973   CU        0.751636    0.550567    0.423307     0.006663
NI2974   NI        0.786804    0.520586    0.425806     0.004307
NI2975   NI        0.805174    0.556891    0.458389     0.004307
NI2976   NI        0.833907    0.521516    0.458753     0.004307
NI2977   NI        0.834347    0.555269    0.425556     0.004307
NI2978   NI        0.865032    0.522885    0.425189     0.004307
NI2979   NI        0.865258    0.557908    0.455788     0.004307
NI2980   NI        0.895491    0.524976    0.457618     0.004307
NI2981   NI        0.896345    0.554968    0.425732     0.004307
NI2982   NI        0.013899    0.591281    0.455003     0.004307
NI2983   NI        0.043926    0.592687    0.423629     0.004307
NI2984   NI        0.044133    0.624760    0.460720     0.004307
NI2985   NI        0.073585    0.589353    0.456877     0.004307
CU2986   CU        0.075310    0.627086    0.425870     0.006663
NI2987   NI        0.106692    0.591169    0.424883     0.004307
NI2988   NI        0.107188    0.626733    0.457824     0.004307
NI2989   NI        0.138824    0.590907    0.457261     0.004307
CU2990   CU        0.141206    0.626903    0.427922     0.006663
NI2991   NI        0.173682    0.591598    0.428082     0.004307
NI2992   NI        0.175441    0.626390    0.457486     0.004307
CU2993   CU        0.207057    0.592073    0.459737     0.006663
NI2994   NI        0.209485    0.625378    0.428393     0.004307
CU2995   CU        0.242330    0.593099    0.428477     0.006663
CU2996   CU        0.242100    0.625642    0.457931     0.006663
CU2997   CU        0.276187    0.593665    0.461671     0.006663
CU2998   CU        0.274732    0.630817    0.430793     0.006663
CU2999   CU        0.317854    0.580704    0.423267     0.006663
NI3000   NI        0.318995    0.616701    0.454121     0.004307
NI3001   NI        0.351513    0.582971    0.454928     0.004307
NI3002   NI        0.351379    0.617215    0.425400     0.004307
CU3003   CU        0.386242    0.585228    0.424724     0.006663
CU3004   CU        0.387006    0.619141    0.456672     0.006663
CU3005   CU        0.418079    0.584963    0.458012     0.006663
CU3006   CU        0.418032    0.619551    0.423965     0.006663
CU3007   CU        0.449188    0.586391    0.428142     0.006663
CU3008   CU        0.451477    0.619637    0.454942     0.006663
CU3009   CU        0.485561    0.584645    0.457482     0.006663
NI3010   NI        0.486077    0.619392    0.427263     0.004307
NI3011   NI        0.518404    0.586268    0.429566     0.004307
CU3012   CU        0.520237    0.620430    0.459017     0.006663
CU3013   CU        0.553325    0.584239    0.458987     0.006663
CU3014   CU        0.554882    0.617448    0.428230     0.006663
CU3015   CU        0.583363    0.585134    0.427108     0.006663
CU3016   CU        0.586248    0.617815    0.459345     0.006663
CU3017   CU        0.618228    0.582206    0.459253     0.006663
CU3018   CU        0.618917    0.617020    0.428249     0.006663
CU3019   CU        0.651924    0.584378    0.426681     0.006663
NI3020   NI        0.651650    0.616592    0.457599     0.004307
NI3021   NI        0.685228    0.584890    0.455940     0.004307
CU3022   CU        0.685671    0.616575    0.426616     0.006663
NI3023   NI        0.720436    0.586713    0.426646     0.004307
NI3024   NI        0.717646    0.618125    0.455356     0.004307
NI3025   NI        0.775357    0.592057    0.462062     0.004307
NI3026   NI        0.751157    0.616906    0.428303     0.004307
CU3027   CU        0.804469    0.588188    0.428723     0.006663
NI3028   NI        0.802164    0.627383    0.461648     0.004307
NI3029   NI        0.834745    0.592176    0.460645     0.004307
NI3030   NI        0.833001    0.624478    0.428435     0.004307
NI3031   NI        0.865827    0.592020    0.427496     0.004307
CU3032   CU        0.865897    0.627963    0.458355     0.006663
NI3033   NI        0.896472    0.592721    0.461171     0.004307
NI3034   NI        0.042544    0.660275    0.426499     0.004307
CU3035   CU        0.076125    0.658537    0.459014     0.006663
NI3036   NI        0.077001    0.692939    0.426542     0.004307
NI3037   NI        0.108819    0.660006    0.427379     0.004307
NI3038   NI        0.108776    0.695115    0.456871     0.004307
NI3039   NI        0.139688    0.660211    0.459954     0.004307
NI3040   NI        0.142544    0.695699    0.427319     0.004307
NI3041   NI        0.175062    0.659587    0.426230     0.004307
CU3042   CU        0.173941    0.696215    0.459025     0.006663
CU3043   CU        0.203866    0.661575    0.457679     0.006663
NI3044   NI        0.206983    0.696719    0.426481     0.004307
NI3045   NI        0.239208    0.661682    0.429009     0.004307
CU3046   CU        0.237304    0.695024    0.460964     0.006663
NI3047   NI        0.270998    0.662026    0.458625     0.004307
NI3048   NI        0.284098    0.682624    0.423808     0.004307
CU3049   CU        0.319725    0.650464    0.422447     0.006663
NI3050   NI        0.319663    0.682617    0.455084     0.004307
CU3051   CU        0.350584    0.647100    0.456177     0.006663
NI3052   NI        0.352706    0.683037    0.423964     0.004307
NI3053   NI        0.383353    0.650757    0.422502     0.004307
CU3054   CU        0.385242    0.682228    0.454277     0.006663
CU3055   CU        0.419718    0.651643    0.454606     0.006663
CU3056   CU        0.417294    0.683663    0.424072     0.006663
CU3057   CU        0.452234    0.649436    0.424151     0.006663
CU3058   CU        0.451460    0.682260    0.455953     0.006663
CU3059   CU        0.486653    0.653407    0.457893     0.006663
NI3060   NI        0.486424    0.682540    0.426346     0.004307
CU3061   CU        0.518329    0.650618    0.427573     0.006663
NI3062   NI        0.520888    0.683924    0.457373     0.004307
CU3063   CU        0.554038    0.650081    0.458925     0.006663
CU3064   CU        0.555986    0.700707    0.425098     0.006663
CU3065   CU        0.587552    0.649539    0.428182     0.006663
NI3066   NI        0.588717    0.681643    0.458644     0.004307
CU3067   CU        0.618979    0.651554    0.460956     0.006663
NI3068   NI        0.620185    0.682237    0.427823     0.004307
NI3069   NI        0.651175    0.648015    0.425876     0.004307
NI3070   NI        0.650085    0.681373    0.456723     0.004307
NI3071   NI        0.684281    0.649196    0.455890     0.004307
NI3072   NI        0.685838    0.684180    0.428197     0.004307
NI3073   NI        0.718209    0.650019    0.427420     0.004307
NI3074   NI        0.734610    0.696509    0.462809     0.004307
NI3075   NI        0.770655    0.664692    0.462780     0.004307
NI3076   NI        0.768842    0.698398    0.427001     0.004307
NI3077   NI        0.801399    0.665989    0.426994     0.004307
NI3078   NI        0.799456    0.698333    0.460477     0.004307
CU3079   CU        0.832860    0.662087    0.459494     0.006663
NI3080   NI        0.831804    0.697259    0.426795     0.004307
NI3081   NI        0.861296    0.661833    0.428161     0.004307
NI3082   NI        0.076838    0.727524    0.459041     0.004307
NI3083   NI        0.110338    0.727818    0.423768     0.004307
CU3084   CU        0.110117    0.759926    0.458585     0.006663
NI3085   NI        0.141863    0.729833    0.461057     0.004307
NI3086   NI        0.140919    0.761014    0.426217     0.004307
CU3087   CU        0.174722    0.729862    0.428751     0.006663
NI3088   NI        0.174133    0.762216    0.459472     0.004307
CU3089   CU        0.206704    0.729903    0.459604     0.006663
NI3090   NI        0.204715    0.764592    0.428627     0.004307
NI3091   NI        0.236502    0.733380    0.425531     0.004307
NI3092   NI        0.239999    0.765133    0.457021     0.004307
NI3093   NI        0.266493    0.729654    0.458720     0.004307
NI3094   NI        0.273031    0.762150    0.424401     0.004307
NI3095   NI        0.319544    0.714420    0.425180     0.004307
NI3096   NI        0.324959    0.753484    0.451989     0.004307
CU3097   CU        0.353790    0.715341    0.453304     0.006663
NI3098   NI        0.355625    0.748569    0.424898     0.004307
CU3099   CU        0.386455    0.714587    0.424005     0.006663
NI3100   NI        0.390032    0.744921    0.453721     0.004307
CU3101   CU        0.420379    0.713705    0.455771     0.006663
NI3102   NI        0.419054    0.766778    0.423382     0.004307
CU3103   CU        0.452157    0.733378    0.427874     0.006663
NI3104   NI        0.452120    0.768134    0.457988     0.004307
NI3105   NI        0.483875    0.736030    0.459369     0.004307
NI3106   NI        0.486949    0.762241    0.425281     0.004307
NI3107   NI        0.522538    0.732262    0.425130     0.004307
NI3108   NI        0.521606    0.764771    0.457425     0.004307
NI3109   NI        0.558141    0.733419    0.456172     0.004307
NI3110   NI        0.556133    0.765743    0.424857     0.004307
NI3111   NI        0.593581    0.734915    0.427977     0.004307
NI3112   NI        0.591341    0.766957    0.459320     0.004307
NI3113   NI        0.625658    0.737030    0.458138     0.004307
CU3114   CU        0.627784    0.766699    0.425720     0.006663
NI3115   NI        0.652013    0.718205    0.426777     0.004307
NI3116   NI        0.663611    0.764240    0.461578     0.004307
NI3117   NI        0.699829    0.732579    0.461316     0.004307
CU3118   CU        0.696497    0.765963    0.428551     0.006663
CU3119   CU        0.731145    0.732627    0.425311     0.006663
CU3120   CU        0.731815    0.763817    0.462333     0.006663
NI3121   NI        0.766526    0.730014    0.459719     0.004307
NI3122   NI        0.764737    0.765675    0.425788     0.004307
NI3123   NI        0.799881    0.729677    0.427726     0.004307
NI3124   NI        0.795442    0.761147    0.459849     0.004307
NI3125   NI        0.832425    0.729901    0.456161     0.004307
NI3126   NI        0.142269    0.793615    0.459022     0.004307
NI3127   NI        0.172941    0.795838    0.428946     0.004307
NI3128   NI        0.175358    0.830697    0.455944     0.004307
CU3129   CU        0.205124    0.795299    0.459976     0.006663
NI3130   NI        0.207232    0.827088    0.426087     0.004307
CU3131   CU        0.240792    0.795724    0.421126     0.006663
NI3132   NI        0.256355    0.807704    0.458735     0.004307
NI3133   NI        0.298005    0.792470    0.452304     0.004307
CU3134   CU        0.277255    0.828028    0.425704     0.006663
NI3135   NI        0.333327    0.786745    0.428236     0.004307
NI3136   NI        0.336718    0.819330    0.459926     0.004307
NI3137   NI        0.362415    0.782514    0.458129     0.004307
NI3138   NI        0.349369    0.831463    0.421535     0.004307
NI3139   NI        0.384081    0.801940    0.421957     0.004307
CU3140   CU        0.383993    0.830385    0.453982     0.006663
NI3141   NI        0.419358    0.799625    0.456540     0.004307
NI3142   NI        0.419785    0.832135    0.423957     0.004307
NI3143   NI        0.455947    0.801013    0.426673     0.004307
CU3144   CU        0.454075    0.832006    0.458190     0.006663
NI3145   NI        0.487935    0.799303    0.457545     0.004307
NI3146   NI        0.487563    0.830345    0.424607     0.004307
NI3147   NI        0.522043    0.799260    0.426093     0.004307
NI3148   NI        0.524041    0.832815    0.458857     0.004307
NI3149   NI        0.557911    0.797249    0.457325     0.004307
NI3150   NI        0.557912    0.829862    0.425870     0.004307
NI3151   NI        0.589926    0.798462    0.423377     0.004307
CU3152   CU        0.594123    0.829365    0.456272     0.006663
CU3153   CU        0.627547    0.797054    0.460559     0.006663
NI3154   NI        0.627601    0.826943    0.426000     0.004307
NI3155   NI        0.662536    0.795463    0.428416     0.004307
NI3156   NI        0.660331    0.831217    0.461595     0.004307
NI3157   NI        0.696938    0.796796    0.460667     0.004307
NI3158   NI        0.695603    0.827152    0.423760     0.004307
NI3159   NI        0.731726    0.793955    0.424546     0.004307
NI3160   NI        0.764618    0.870447    0.458013     0.004307
NI3161   NI        0.764779    0.796235    0.456899     0.004307
NI3162   NI        0.259360    0.852902    0.455607     0.004307
NI3163   NI        0.294132    0.833194    0.470251     0.004307
NI3164   NI        0.312245    0.862469    0.423910     0.004307
NI3165   NI        0.319213    0.895223    0.456804     0.004307
NI3166   NI        0.350069    0.860835    0.455035     0.004307
NI3167   NI        0.349462    0.894717    0.426338     0.004307
NI3168   NI        0.380611    0.863316    0.424961     0.004307
CU3169   CU        0.382370    0.893544    0.459560     0.006663
CU3170   CU        0.416379    0.861914    0.459340     0.006663
NI3171   NI        0.417613    0.893170    0.425247     0.004307
NI3172   NI        0.452580    0.863793    0.424252     0.004307
NI3173   NI        0.453832    0.894433    0.459162     0.004307
CU3174   CU        0.490765    0.864553    0.458225     0.006663
NI3175   NI        0.487778    0.892816    0.425185     0.004307
NI3176   NI        0.523287    0.862479    0.423921     0.004307
NI3177   NI        0.526269    0.892957    0.460127     0.004307
NI3178   NI        0.557777    0.859916    0.458684     0.004307
NI3179   NI        0.558989    0.892637    0.427007     0.004307
NI3180   NI        0.592979    0.860758    0.427560     0.004307
CU3181   CU        0.587976    0.892214    0.458076     0.006663
NI3182   NI        0.626334    0.860285    0.459884     0.004307
NI3183   NI        0.667184    0.890052    0.460987     0.004307
NI3184   NI        0.347499    0.007497    0.490150     0.004307
NI3185   NI        0.382376    0.007554    0.525634     0.004307
NI3186   NI        0.414476    0.006127    0.487437     0.004307
NI3187   NI        0.459235    0.012960    0.527723     0.004307
NI3188   NI        0.491013    0.014754    0.492181     0.004307
NI3189   NI        0.526843    0.012408    0.522482     0.004307
NI3190   NI        0.561031    0.009170    0.490369     0.004307
NI3191   NI        0.208945    0.070020    0.486221     0.004307
NI3192   NI        0.245118    0.040655    0.491779     0.004307
NI3193   NI        0.245365    0.070606    0.525052     0.004307
NI3194   NI        0.279863    0.039698    0.523988     0.004307
CU3195   CU        0.277339    0.071132    0.490861     0.006663
NI3196   NI        0.315639    0.039976    0.489022     0.004307
CU3197   CU        0.310681    0.070870    0.525442     0.006663
CU3198   CU        0.346445    0.038104    0.524239     0.006663
NI3199   NI        0.347871    0.070052    0.493173     0.004307
CU3200   CU        0.381200    0.037564    0.490313     0.006663
CU3201   CU        0.382495    0.069604    0.524156     0.006663
NI3202   NI        0.415542    0.036285    0.519427     0.004307
NI3203   NI        0.416995    0.068364    0.491099     0.004307
CU3204   CU        0.449939    0.035526    0.487521     0.006663
CU3205   CU        0.451153    0.065064    0.520194     0.006663
NI3206   NI        0.492124    0.042172    0.524868     0.004307
CU3207   CU        0.487766    0.064718    0.489986     0.006663
NI3208   NI        0.528929    0.045479    0.494888     0.004307
CU3209   CU        0.524317    0.073638    0.526782     0.006663
NI3210   NI        0.564183    0.042169    0.524200     0.004307
NI3211   NI        0.562247    0.075384    0.490176     0.004307
NI3212   NI        0.594326    0.042211    0.489444     0.004307
NI3213   NI        0.594994    0.072298    0.521876     0.004307
NI3214   NI        0.631008    0.040077    0.522009     0.004307
NI3215   NI        0.630075    0.072417    0.489816     0.004307
NI3216   NI        0.664508    0.040418    0.492120     0.004307
NI3217   NI        0.662881    0.068646    0.526064     0.004307
CU3218   CU        0.676023    0.084583    0.491288     0.006663
NI3219   NI        0.108636    0.138648    0.521867     0.004307
NI3220   NI        0.145351    0.104620    0.525094     0.004307
CU3221   CU        0.142908    0.138611    0.493417     0.006663
NI3222   NI        0.177463    0.105169    0.493339     0.004307
CU3223   CU        0.175347    0.139160    0.524311     0.006663
CU3224   CU        0.210139    0.103785    0.524626     0.006663
NI3225   NI        0.208550    0.134351    0.490464     0.004307
NI3226   NI        0.242390    0.103317    0.492022     0.004307
NI3227   NI        0.242535    0.137806    0.524925     0.004307
CU3228   CU        0.278790    0.102252    0.525078     0.006663
NI3229   NI        0.276810    0.134484    0.494711     0.004307
NI3230   NI        0.310717    0.102356    0.492251     0.004307
NI3231   NI        0.312932    0.133915    0.524720     0.004307
CU3232   CU        0.346665    0.100109    0.524685     0.006663
CU3233   CU        0.350542    0.130959    0.491556     0.006663
NI3234   NI        0.383118    0.101671    0.491651     0.004307
NI3235   NI        0.377673    0.130393    0.525793     0.004307
NI3236   NI        0.416601    0.098452    0.523745     0.004307
NI3237   NI        0.421234    0.128456    0.491928     0.004307
NI3238   NI        0.453638    0.097984    0.490238     0.004307
CU3239   CU        0.452446    0.125927    0.522842     0.006663
NI3240   NI        0.485551    0.094464    0.520681     0.004307
NI3241   NI        0.486981    0.127613    0.491090     0.004307
CU3242   CU        0.521256    0.096166    0.490221     0.006663
CU3243   CU        0.525671    0.127271    0.523706     0.006663
NI3244   NI        0.560762    0.100160    0.527746     0.004307
NI3245   NI        0.555106    0.124772    0.490147     0.004307
NI3246   NI        0.599158    0.106359    0.491890     0.004307
NI3247   NI        0.593802    0.133276    0.527018     0.004307
NI3248   NI        0.629061    0.102894    0.526635     0.004307
NI3249   NI        0.610722    0.150176    0.489262     0.004307
NI3250   NI        0.642975    0.118777    0.489245     0.004307
NI3251   NI        0.660178    0.134069    0.527302     0.004307
NI3252   NI        0.693322    0.101208    0.527987     0.004307
NI3253   NI        0.685639    0.128111    0.491934     0.004307
NI3254   NI        0.718310    0.098322    0.489694     0.004307
NI3255   NI        0.721998    0.131672    0.521379     0.004307
NI3256   NI        0.773723    0.112695    0.525466     0.004307
NI3257   NI        0.755254    0.127465    0.491733     0.004307
NI3258   NI        0.803581    0.145194    0.524858     0.004307
NI3259   NI        0.076611    0.208621    0.490550     0.004307
NI3260   NI        0.109830    0.170121    0.490233     0.004307
NI3261   NI        0.107412    0.207531    0.523856     0.004307
NI3262   NI        0.141547    0.171387    0.523907     0.004307
NI3263   NI        0.140100    0.204908    0.492342     0.004307
NI3264   NI        0.173172    0.169670    0.490978     0.004307
NI3265   NI        0.172526    0.202909    0.523244     0.004307
NI3266   NI        0.207124    0.169579    0.522785     0.004307
NI3267   NI        0.205325    0.202454    0.491542     0.004307
NI3268   NI        0.240440    0.169837    0.491991     0.004307
NI3269   NI        0.240006    0.201272    0.522375     0.004307
NI3270   NI        0.276961    0.168122    0.523459     0.004307
NI3271   NI        0.273880    0.200515    0.493100     0.004307
NI3272   NI        0.309458    0.169257    0.496218     0.004307
NI3273   NI        0.321833    0.222338    0.516922     0.004307
NI3274   NI        0.346564    0.163206    0.524429     0.004307
CU3275   CU        0.355561    0.218049    0.488616     0.006663
NI3276   NI        0.390156    0.186240    0.487371     0.004307
CU3277   CU        0.386841    0.215671    0.518903     0.006663
NI3278   NI        0.420982    0.187608    0.518201     0.004307
NI3279   NI        0.420463    0.217738    0.484140     0.004307
CU3280   CU        0.452202    0.185553    0.487164     0.006663
CU3281   CU        0.454208    0.218212    0.517757     0.006663
NI3282   NI        0.488537    0.183092    0.520088     0.004307
CU3283   CU        0.487768    0.216692    0.485920     0.006663
NI3284   NI        0.521685    0.187247    0.486834     0.004307
CU3285   CU        0.523003    0.216854    0.518189     0.006663
NI3286   NI        0.554101    0.184709    0.516074     0.004307
NI3287   NI        0.552817    0.218417    0.486074     0.004307
NI3288   NI        0.585068    0.185578    0.485554     0.004307
NI3289   NI        0.595833    0.199940    0.525548     0.004307
NI3290   NI        0.627238    0.165764    0.527811     0.004307
CU3291   CU        0.614499    0.219133    0.487443     0.006663
NI3292   NI        0.643914    0.181613    0.488288     0.004307
NI3293   NI        0.642989    0.214106    0.517658     0.004307
CU3294   CU        0.673807    0.176534    0.517507     0.006663
NI3295   NI        0.706345    0.204410    0.492789     0.004307
NI3296   NI        0.735427    0.170438    0.485480     0.004307
NI3297   NI        0.739042    0.210548    0.524952     0.004307
CU3298   CU        0.770398    0.176492    0.524342     0.006663
CU3299   CU        0.768342    0.208206    0.490615     0.006663
CU3300   CU        0.802903    0.175474    0.490491     0.006663
NI3301   NI        0.803228    0.208180    0.526159     0.004307
NI3302   NI        0.831320    0.210479    0.488757     0.004307
NI3303   NI        0.042083    0.243327    0.489782     0.004307
NI3304   NI        0.043216    0.272596    0.523761     0.004307
NI3305   NI        0.075998    0.240268    0.523221     0.004307
NI3306   NI        0.074494    0.275215    0.493208     0.004307
NI3307   NI        0.109209    0.238758    0.493136     0.004307
NI3308   NI        0.106523    0.273948    0.525306     0.004307
NI3309   NI        0.140824    0.240244    0.526213     0.004307
NI3310   NI        0.137867    0.275117    0.489462     0.004307
NI3311   NI        0.173402    0.236712    0.490087     0.004307
NI3312   NI        0.169749    0.277987    0.522665     0.004307
CU3313   CU        0.203734    0.234527    0.522492     0.006663
NI3314   NI        0.221796    0.282650    0.488170     0.004307
NI3315   NI        0.254802    0.251497    0.485630     0.004307
CU3316   CU        0.253047    0.281931    0.519415     0.006663
CU3317   CU        0.289066    0.252174    0.515935     0.006663
CU3318   CU        0.288511    0.283253    0.486984     0.006663
CU3319   CU        0.322812    0.251187    0.487032     0.006663
CU3320   CU        0.321376    0.285027    0.518092     0.006663
NI3321   NI        0.355060    0.251645    0.517168     0.004307
CU3322   CU        0.353430    0.283246    0.487207     0.006663
CU3323   CU        0.388087    0.248142    0.487141     0.006663
CU3324   CU        0.389097    0.283169    0.518783     0.006663
CU3325   CU        0.421493    0.250200    0.520263     0.006663
NI3326   NI        0.421337    0.282157    0.488644     0.004307
CU3327   CU        0.453119    0.249160    0.486649     0.006663
CU3328   CU        0.454649    0.283717    0.517301     0.006663
CU3329   CU        0.486248    0.249072    0.516560     0.006663
CU3330   CU        0.488126    0.282346    0.487477     0.006663
CU3331   CU        0.522138    0.249655    0.485833     0.006663
CU3332   CU        0.520046    0.280199    0.520060     0.006663
CU3333   CU        0.554649    0.251475    0.520063     0.006663
CU3334   CU        0.552898    0.286271    0.486645     0.006663
NI3335   NI        0.586875    0.253630    0.485651     0.004307
CU3336   CU        0.586170    0.284969    0.518316     0.006663
NI3337   NI        0.620642    0.252248    0.519568     0.004307
CU3338   CU        0.619242    0.285469    0.487687     0.006663
NI3339   NI        0.650650    0.249031    0.489233     0.004307
NI3340   NI        0.654233    0.283946    0.519119     0.004307
NI3341   NI        0.704189    0.239433    0.523393     0.004307
NI3342   NI        0.699310    0.272529    0.494379     0.004307
CU3343   CU        0.736689    0.243780    0.490652     0.006663
NI3344   NI        0.738065    0.275131    0.524165     0.004307
NI3345   NI        0.767441    0.243027    0.523314     0.004307
CU3346   CU        0.771002    0.275619    0.491233     0.006663
CU3347   CU        0.800304    0.241254    0.491581     0.006663
NI3348   NI        0.801169    0.274402    0.525465     0.004307
NI3349   NI        0.834844    0.242546    0.525714     0.004307
NI3350   NI        0.832921    0.274843    0.492029     0.004307
NI3351   NI        0.863260    0.241688    0.491004     0.004307
NI3352   NI        0.864618    0.277249    0.521168     0.004307
NI3353   NI        0.010894    0.345786    0.488400     0.004307
NI3354   NI        0.043182    0.310199    0.488417     0.004307
NI3355   NI        0.043854    0.344885    0.521594     0.004307
NI3356   NI        0.071730    0.308698    0.525585     0.004307
NI3357   NI        0.073543    0.343994    0.488966     0.004307
CU3358   CU        0.105539    0.309444    0.489065     0.006663
NI3359   NI        0.104608    0.344119    0.523895     0.004307
NI3360   NI        0.135379    0.308703    0.523296     0.004307
NI3361   NI        0.132482    0.347169    0.491216     0.004307
CU3362   CU        0.187753    0.311622    0.491110     0.006663
CU3363   CU        0.185936    0.347626    0.521962     0.006663
NI3364   NI        0.219621    0.314876    0.521565     0.004307
CU3365   CU        0.218169    0.347496    0.491899     0.006663
NI3366   NI        0.254209    0.315402    0.488310     0.004307
CU3367   CU        0.249927    0.349442    0.519607     0.006663
CU3368   CU        0.285969    0.315551    0.520470     0.006663
NI3369   NI        0.284643    0.349857    0.489026     0.004307
CU3370   CU        0.320441    0.317549    0.486294     0.006663
CU3371   CU        0.321205    0.351836    0.520493     0.006663
CU3372   CU        0.353560    0.317787    0.518925     0.006663
CU3373   CU        0.353368    0.348421    0.485895     0.006663
CU3374   CU        0.389154    0.317260    0.485630     0.006663
CU3375   CU        0.387067    0.350204    0.517228     0.006663
CU3376   CU        0.421681    0.317815    0.516026     0.006663
CU3377   CU        0.420808    0.350116    0.486574     0.006663
CU3378   CU        0.455374    0.317306    0.487861     0.006663
CU3379   CU        0.454575    0.350348    0.519060     0.006663
CU3380   CU        0.487668    0.316917    0.517830     0.006663
CU3381   CU        0.488551    0.348821    0.487350     0.006663
CU3382   CU        0.520597    0.316939    0.487754     0.006663
CU3383   CU        0.518971    0.350722    0.520008     0.006663
CU3384   CU        0.553522    0.317768    0.519037     0.006663
CU3385   CU        0.553342    0.350941    0.489261     0.006663
CU3386   CU        0.586274    0.318226    0.490233     0.006663
CU3387   CU        0.586542    0.350095    0.520472     0.006663
CU3388   CU        0.621803    0.315890    0.518793     0.006663
NI3389   NI        0.621458    0.350596    0.488976     0.004307
CU3390   CU        0.654659    0.317115    0.488799     0.006663
NI3391   NI        0.654120    0.352743    0.521359     0.004307
NI3392   NI        0.687566    0.316479    0.522913     0.004307
CU3393   CU        0.687560    0.350402    0.488590     0.006663
NI3394   NI        0.715599    0.313258    0.485500     0.004307
NI3395   NI        0.720112    0.348686    0.520386     0.004307
NI3396   NI        0.771427    0.309283    0.523698     0.004307
NI3397   NI        0.774088    0.341804    0.494858     0.004307
NI3398   NI        0.803880    0.310151    0.492708     0.004307
NI3399   NI        0.803444    0.341897    0.526116     0.004307
CU3400   CU        0.834373    0.310130    0.525336     0.006663
CU3401   CU        0.835896    0.342839    0.493206     0.006663
NI3402   NI        0.864005    0.309535    0.490978     0.004307
NI3403   NI        0.865462    0.344103    0.525562     0.004307
NI3404   NI        0.893152    0.346194    0.491464     0.004307
NI3405   NI        0.008947    0.380397    0.518876     0.004307
NI3406   NI        0.008033    0.411400    0.487582     0.004307
NI3407   NI        0.039967    0.378970    0.488129     0.004307
NI3408   NI        0.038094    0.416029    0.520539     0.004307
CU3409   CU        0.072209    0.380496    0.524634     0.006663
CU3410   CU        0.069606    0.416704    0.488301     0.006663
NI3411   NI        0.102957    0.380681    0.490511     0.004307
NI3412   NI        0.101188    0.419096    0.518255     0.004307
NI3413   NI        0.151746    0.384558    0.516143     0.004307
NI3414   NI        0.133513    0.416864    0.486889     0.004307
NI3415   NI        0.185721    0.381959    0.490224     0.004307
CU3416   CU        0.187252    0.416215    0.521090     0.006663
NI3417   NI        0.216425    0.381508    0.519943     0.004307
NI3418   NI        0.219477    0.416466    0.489876     0.004307
CU3419   CU        0.251611    0.383135    0.489713     0.006663
NI3420   NI        0.253198    0.416921    0.521000     0.004307
CU3421   CU        0.287762    0.382843    0.520295     0.006663
CU3422   CU        0.286116    0.417912    0.491045     0.006663
CU3423   CU        0.321361    0.383026    0.487251     0.006663
CU3424   CU        0.320493    0.415865    0.518368     0.006663
NI3425   NI        0.353348    0.382010    0.520725     0.004307
CU3426   CU        0.353477    0.417868    0.487005     0.006663
CU3427   CU        0.387207    0.382220    0.487769     0.006663
CU3428   CU        0.386564    0.415906    0.517589     0.006663
CU3429   CU        0.419434    0.382455    0.520656     0.006663
CU3430   CU        0.420747    0.418621    0.487585     0.006663
CU3431   CU        0.455789    0.380385    0.489365     0.006663
CU3432   CU        0.450441    0.414252    0.519429     0.006663
CU3433   CU        0.485616    0.384102    0.522326     0.006663
CU3434   CU        0.488615    0.414339    0.488335     0.006663
CU3435   CU        0.522596    0.383358    0.487346     0.006663
CU3436   CU        0.520735    0.416700    0.517985     0.006663
NI3437   NI        0.555327    0.382065    0.522202     0.004307
NI3438   NI        0.553388    0.417469    0.487979     0.004307
CU3439   CU        0.585045    0.382182    0.487864     0.006663
CU3440   CU        0.587353    0.417308    0.518465     0.006663
CU3441   CU        0.621176    0.384193    0.520253     0.006663
CU3442   CU        0.621189    0.416403    0.488137     0.006663
CU3443   CU        0.654645    0.383628    0.488805     0.006663
CU3444   CU        0.655429    0.417136    0.519759     0.006663
NI3445   NI        0.690046    0.385854    0.519518     0.004307
CU3446   CU        0.689872    0.415415    0.487274     0.006663
NI3447   NI        0.723247    0.382431    0.487353     0.004307
CU3448   CU        0.721238    0.418710    0.519553     0.006663
NI3449   NI        0.755167    0.384920    0.519280     0.004307
CU3450   CU        0.753902    0.417395    0.488157     0.006663
NI3451   NI        0.808261    0.378911    0.489454     0.004307
CU3452   CU        0.806461    0.417436    0.522557     0.006663
CU3453   CU        0.833238    0.377167    0.523611     0.006663
CU3454   CU        0.838674    0.416728    0.489011     0.006663
NI3455   NI        0.863862    0.381144    0.492986     0.004307
NI3456   NI        0.862772    0.412343    0.524381     0.004307
NI3457   NI        0.894038    0.380371    0.524752     0.004307
NI3458   NI        0.892608    0.415600    0.492877     0.004307
NI3459   NI        0.006593    0.452133    0.516501     0.004307
CU3460   CU        0.008004    0.487174    0.488157     0.006663
NI3461   NI        0.039569    0.449460    0.488043     0.004307
NI3462   NI        0.039101    0.484453    0.519494     0.004307
CU3463   CU        0.070858    0.452504    0.519221     0.006663
CU3464   CU        0.070890    0.484234    0.489292     0.006663
CU3465   CU        0.102792    0.452202    0.489052     0.006663
NI3466   NI        0.103627    0.485441    0.520514     0.004307
NI3467   NI        0.153877    0.450826    0.521319     0.004307
NI3468   NI        0.133935    0.489189    0.488363     0.004307
NI3469   NI        0.186247    0.450220    0.490240     0.004307
CU3470   CU        0.188393    0.480559    0.521665     0.006663
CU3471   CU        0.219200    0.449649    0.521003     0.006663
CU3472   CU        0.219798    0.482553    0.490332     0.006663
NI3473   NI        0.254120    0.449205    0.487902     0.004307
CU3474   CU        0.253255    0.482107    0.520962     0.006663
CU3475   CU        0.285705    0.451182    0.520681     0.006663
NI3476   NI        0.287178    0.484743    0.489552     0.004307
CU3477   CU        0.319211    0.449836    0.489567     0.006663
CU3478   CU        0.317986    0.485113    0.520154     0.006663
CU3479   CU        0.354559    0.448757    0.521149     0.006663
CU3480   CU        0.352988    0.486132    0.487846     0.006663
NI3481   NI        0.387311    0.450648    0.488165     0.004307
CU3482   CU        0.387982    0.484047    0.520285     0.006663
CU3483   CU        0.419759    0.451474    0.521225     0.006663
CU3484   CU        0.421185    0.484395    0.488610     0.006663
CU3485   CU        0.454095    0.447054    0.486677     0.006663
CU3486   CU        0.452171    0.486570    0.520014     0.006663
CU3487   CU        0.484729    0.448277    0.520812     0.006663
CU3488   CU        0.486388    0.483200    0.490747     0.006663
CU3489   CU        0.517260    0.449076    0.488476     0.006663
CU3490   CU        0.520540    0.485601    0.520127     0.006663
CU3491   CU        0.554973    0.450607    0.520520     0.006663
CU3492   CU        0.551880    0.484742    0.489625     0.006663
CU3493   CU        0.586821    0.448927    0.487388     0.006663
CU3494   CU        0.589882    0.483710    0.520656     0.006663
CU3495   CU        0.622513    0.450442    0.520748     0.006663
NI3496   NI        0.620621    0.483016    0.488514     0.004307
CU3497   CU        0.652431    0.450029    0.487773     0.006663
CU3498   CU        0.652128    0.485043    0.519030     0.006663
NI3499   NI        0.688997    0.450751    0.517750     0.004307
NI3500   NI        0.688850    0.484271    0.486995     0.004307
NI3501   NI        0.722435    0.450896    0.487082     0.004307
CU3502   CU        0.720416    0.483615    0.518424     0.006663
NI3503   NI        0.753320    0.450964    0.517031     0.004307
NI3504   NI        0.754451    0.484717    0.487248     0.004307
NI3505   NI        0.786720    0.452328    0.485869     0.004307
NI3506   NI        0.806215    0.484268    0.519032     0.004307
NI3507   NI        0.837409    0.451133    0.519116     0.004307
CU3508   CU        0.836316    0.486096    0.488148     0.006663
CU3509   CU        0.870242    0.456379    0.487263     0.006663
NI3510   NI        0.866312    0.484939    0.521822     0.004307
CU3511   CU        0.894165    0.450872    0.525944     0.006663
NI3512   NI        0.898737    0.490811    0.494330     0.004307
CU3513   CU        0.005439    0.520734    0.517546     0.006663
NI3514   NI        0.012654    0.557195    0.489301     0.004307
NI3515   NI        0.042496    0.519955    0.491004     0.004307
NI3516   NI        0.041162    0.553689    0.522871     0.004307
NI3517   NI        0.071958    0.521735    0.525124     0.004307
CU3518   CU        0.072888    0.554234    0.490262     0.006663
CU3519   CU        0.104634    0.522782    0.490355     0.006663
CU3520   CU        0.103191    0.557639    0.521934     0.006663
NI3521   NI        0.136751    0.524416    0.519455     0.004307
CU3522   CU        0.136834    0.557720    0.490111     0.006663
CU3523   CU        0.169032    0.524825    0.491160     0.006663
NI3524   NI        0.169962    0.560219    0.523617     0.004307
NI3525   NI        0.221443    0.516500    0.522575     0.004307
CU3526   CU        0.204748    0.560807    0.489583     0.006663
CU3527   CU        0.251501    0.518022    0.489365     0.006663
CU3528   CU        0.254975    0.546613    0.524842     0.006663
NI3529   NI        0.286005    0.516686    0.520924     0.004307
NI3530   NI        0.285307    0.549038    0.490024     0.004307
CU3531   CU        0.320542    0.517385    0.488523     0.006663
CU3532   CU        0.318067    0.550457    0.520742     0.006663
CU3533   CU        0.349768    0.517860    0.521810     0.006663
CU3534   CU        0.351168    0.550635    0.487246     0.006663
CU3535   CU        0.385883    0.518522    0.490062     0.006663
CU3536   CU        0.384081    0.550829    0.520153     0.006663
CU3537   CU        0.416178    0.517334    0.520912     0.006663
CU3538   CU        0.418638    0.550832    0.489885     0.006663
CU3539   CU        0.451950    0.519211    0.489197     0.006663
CU3540   CU        0.453234    0.550002    0.520917     0.006663
NI3541   NI        0.486810    0.517956    0.520382     0.004307
CU3542   CU        0.486161    0.550542    0.490740     0.006663
CU3543   CU        0.517983    0.517362    0.487594     0.006663
NI3544   NI        0.520652    0.549469    0.520647     0.004307
CU3545   CU        0.555344    0.515047    0.520228     0.006663
CU3546   CU        0.551851    0.550080    0.489028     0.006663
CU3547   CU        0.587999    0.517733    0.487907     0.006663
CU3548   CU        0.585369    0.548662    0.520739     0.006663
CU3549   CU        0.621880    0.518696    0.520652     0.006663
NI3550   NI        0.618789    0.550243    0.491020     0.004307
CU3551   CU        0.655351    0.518345    0.488953     0.006663
CU3552   CU        0.652462    0.550975    0.520804     0.006663
CU3553   CU        0.688494    0.518374    0.518093     0.006663
CU3554   CU        0.687844    0.549175    0.487337     0.006663
NI3555   NI        0.722987    0.516721    0.486844     0.004307
CU3556   CU        0.723515    0.550022    0.518869     0.006663
NI3557   NI        0.753275    0.514310    0.520944     0.004307
NI3558   NI        0.752633    0.552959    0.487065     0.004307
NI3559   NI        0.807025    0.520448    0.491619     0.004307
NI3560   NI        0.803594    0.558179    0.527271     0.004307
NI3561   NI        0.831331    0.523132    0.526347     0.004307
NI3562   NI        0.834713    0.557509    0.494407     0.004307
NI3563   NI        0.865455    0.522196    0.492722     0.004307
NI3564   NI        0.863796    0.558280    0.526885     0.004307
CU3565   CU        0.894775    0.522169    0.525653     0.006663
NI3566   NI        0.897108    0.555493    0.489110     0.004307
CU3567   CU        0.044997    0.589741    0.490150     0.006663
NI3568   NI        0.039464    0.626144    0.524293     0.004307
NI3569   NI        0.072434    0.592285    0.524023     0.004307
CU3570   CU        0.073776    0.624385    0.493729     0.006663
CU3571   CU        0.105454    0.591601    0.490600     0.006663
CU3572   CU        0.105920    0.625545    0.523703     0.006663
NI3573   NI        0.137190    0.593099    0.523030     0.004307
CU3574   CU        0.137698    0.623731    0.491322     0.006663
NI3575   NI        0.174191    0.592240    0.489773     0.004307
CU3576   CU        0.169618    0.627667    0.523305     0.006663
CU3577   CU        0.206407    0.594945    0.518905     0.006663
NI3578   NI        0.206450    0.627222    0.488384     0.004307
CU3579   CU        0.242118    0.593951    0.489629     0.006663
CU3580   CU        0.240935    0.625639    0.520200     0.006663
CU3581   CU        0.287399    0.581359    0.522139     0.006663
CU3582   CU        0.273401    0.628719    0.488023     0.006663
NI3583   NI        0.319177    0.584432    0.489467     0.004307
CU3584   CU        0.319376    0.613153    0.522599     0.006663
NI3585   NI        0.352927    0.583270    0.520208     0.004307
CU3586   CU        0.352114    0.616108    0.487612     0.006663
CU3587   CU        0.382646    0.582131    0.488783     0.006663
NI3588   NI        0.386686    0.616387    0.519139     0.004307
CU3589   CU        0.415785    0.583846    0.517317     0.006663
CU3590   CU        0.419306    0.620192    0.489025     0.006663
NI3591   NI        0.451884    0.586214    0.489368     0.004307
CU3592   CU        0.451829    0.618519    0.518674     0.006663
CU3593   CU        0.485796    0.584319    0.521257     0.006663
CU3594   CU        0.486482    0.618888    0.488149     0.006663
CU3595   CU        0.518116    0.585075    0.489091     0.006663
CU3596   CU        0.517976    0.617243    0.521132     0.006663
NI3597   NI        0.553719    0.583857    0.518836     0.004307
CU3598   CU        0.553985    0.616702    0.490590     0.006663
CU3599   CU        0.587028    0.584168    0.489419     0.006663
CU3600   CU        0.586496    0.616820    0.521627     0.006663
CU3601   CU        0.618657    0.583655    0.520800     0.006663
CU3602   CU        0.620350    0.616716    0.489412     0.006663
CU3603   CU        0.653099    0.583057    0.487645     0.006663
NI3604   NI        0.654363    0.615352    0.517809     0.004307
NI3605   NI        0.686471    0.580406    0.518832     0.004307
NI3606   NI        0.685660    0.614768    0.485620     0.004307
NI3607   NI        0.717676    0.583358    0.485439     0.004307
NI3608   NI        0.737932    0.629500    0.525387     0.004307
NI3609   NI        0.769872    0.593222    0.528723     0.004307
CU3610   CU        0.772086    0.628094    0.494775     0.006663
CU3611   CU        0.801716    0.593012    0.494969     0.006663
NI3612   NI        0.801268    0.627066    0.527864     0.004307
NI3613   NI        0.833537    0.591693    0.525526     0.004307
CU3614   CU        0.832088    0.626380    0.493169     0.006663
CU3615   CU        0.864951    0.588039    0.491798     0.006663
NI3616   NI        0.863431    0.625482    0.525598     0.004307
NI3617   NI        0.043046    0.659345    0.494324     0.004307
NI3618   NI        0.073883    0.660143    0.522295     0.004307
NI3619   NI        0.076824    0.695577    0.489583     0.004307
CU3620   CU        0.106388    0.661265    0.492223     0.006663
CU3621   CU        0.107783    0.694838    0.523910     0.006663
CU3622   CU        0.139171    0.659034    0.524282     0.006663
NI3623   NI        0.141299    0.694650    0.490088     0.004307
NI3624   NI        0.172694    0.661300    0.492510     0.004307
CU3625   CU        0.171942    0.691937    0.525287     0.006663
NI3626   NI        0.203695    0.658785    0.523938     0.004307
NI3627   NI        0.204952    0.696537    0.492529     0.004307
NI3628   NI        0.239066    0.659426    0.488563     0.004307
NI3629   NI        0.236065    0.693304    0.524268     0.004307
NI3630   NI        0.288067    0.644813    0.524113     0.004307
NI3631   NI        0.271767    0.697427    0.489466     0.004307
NI3632   NI        0.318917    0.648797    0.486955     0.004307
CU3633   CU        0.322712    0.676775    0.519618     0.006663
NI3634   NI        0.353598    0.646717    0.518703     0.004307
NI3635   NI        0.352593    0.680472    0.483689     0.004307
CU3636   CU        0.384707    0.649850    0.488148     0.006663
CU3637   CU        0.388402    0.680558    0.517345     0.006663
CU3638   CU        0.421181    0.649580    0.520582     0.006663
CU3639   CU        0.421429    0.682618    0.486645     0.006663
CU3640   CU        0.452454    0.652218    0.489252     0.006663
NI3641   NI        0.454056    0.683878    0.521134     0.004307
CU3642   CU        0.484244    0.651216    0.518236     0.006663
NI3643   NI        0.488522    0.683186    0.489776     0.004307
CU3644   CU        0.520876    0.651088    0.490621     0.006663
NI3645   NI        0.518422    0.682350    0.521308     0.004307
CU3646   CU        0.556043    0.651861    0.522011     0.006663
CU3647   CU        0.554604    0.683590    0.491607     0.006663
NI3648   NI        0.586246    0.650409    0.490422     0.004307
NI3649   NI        0.587633    0.683018    0.521169     0.004307
CU3650   CU        0.620812    0.648018    0.519464     0.006663
CU3651   CU        0.618912    0.682571    0.490391     0.006663
CU3652   CU        0.654109    0.649436    0.485895     0.006663
NI3653   NI        0.667579    0.698713    0.524008     0.004307
CU3654   CU        0.698614    0.663503    0.527631     0.006663
NI3655   NI        0.699806    0.699508    0.491843     0.004307
NI3656   NI        0.736888    0.662476    0.493167     0.004307
NI3657   NI        0.734268    0.696248    0.527666     0.004307
CU3658   CU        0.770884    0.663250    0.523522     0.006663
NI3659   NI        0.767989    0.695375    0.494496     0.004307
NI3660   NI        0.801764    0.662879    0.492430     0.004307
CU3661   CU        0.800061    0.696852    0.525191     0.006663
CU3662   CU        0.833076    0.660942    0.524520     0.006663
CU3663   CU        0.831928    0.695835    0.489362     0.006663
NI3664   NI        0.864153    0.656299    0.491321     0.004307
NI3665   NI        0.109052    0.726384    0.492617     0.004307
NI3666   NI        0.107725    0.759755    0.525654     0.004307
NI3667   NI        0.139791    0.727737    0.524715     0.004307
NI3668   NI        0.140797    0.761113    0.492563     0.004307
NI3669   NI        0.173507    0.729505    0.491078     0.004307
NI3670   NI        0.174250    0.762690    0.524222     0.004307
NI3671   NI        0.204236    0.728958    0.521914     0.004307
NI3672   NI        0.204453    0.762762    0.492388     0.004307
CU3673   CU        0.240343    0.730094    0.491820     0.006663
NI3674   NI        0.264542    0.762101    0.513987     0.004307
NI3675   NI        0.281981    0.724096    0.531195     0.004307
NI3676   NI        0.294186    0.751697    0.483308     0.004307
NI3677   NI        0.320912    0.713130    0.482829     0.004307
NI3678   NI        0.324407    0.743743    0.512995     0.004307
NI3679   NI        0.355505    0.708755    0.516261     0.004307
NI3680   NI        0.356536    0.743678    0.484178     0.004307
NI3681   NI        0.388762    0.712982    0.484852     0.004307
NI3682   NI        0.389602    0.741431    0.515776     0.004307
CU3683   CU        0.422483    0.712018    0.518014     0.006663
CU3684   CU        0.422774    0.744785    0.487180     0.006663
CU3685   CU        0.455379    0.714888    0.487893     0.006663
CU3686   CU        0.453242    0.746145    0.519113     0.006663
CU3687   CU        0.488954    0.716167    0.522348     0.006663
NI3688   NI        0.487256    0.768734    0.492628     0.004307
NI3689   NI        0.521355    0.715836    0.492068     0.004307
NI3690   NI        0.519263    0.747784    0.522970     0.004307
NI3691   NI        0.552681    0.716385    0.521738     0.004307
NI3692   NI        0.558844    0.768200    0.489050     0.004307
NI3693   NI        0.587526    0.713974    0.489948     0.004307
NI3694   NI        0.595493    0.766266    0.524660     0.004307
NI3695   NI        0.631784    0.732899    0.530137     0.004307
NI3696   NI        0.632387    0.765085    0.492519     0.004307
CU3697   CU        0.664879    0.732322    0.494573     0.006663
CU3698   CU        0.664185    0.766196    0.527048     0.006663
NI3699   NI        0.699710    0.730723    0.525889     0.004307
NI3700   NI        0.696511    0.765957    0.492319     0.004307
NI3701   NI        0.736638    0.732053    0.492058     0.004307
NI3702   NI        0.731828    0.765223    0.524577     0.004307
CU3703   CU        0.765599    0.729179    0.523561     0.006663
CU3704   CU        0.765780    0.764735    0.492068     0.006663
NI3705   NI        0.797281    0.730023    0.492450     0.004307
CU3706   CU        0.796591    0.762372    0.522948     0.006663
NI3707   NI        0.141549    0.792576    0.525785     0.004307
NI3708   NI        0.173745    0.796079    0.491857     0.004307
NI3709   NI        0.205410    0.795118    0.527057     0.004307
NI3710   NI        0.222535    0.832878    0.474926     0.004307
CU3711   CU        0.237865    0.792691    0.494275     0.006663
NI3712   NI        0.273962    0.802367    0.531015     0.004307
NI3713   NI        0.312602    0.784733    0.520567     0.004307
NI3714   NI        0.282333    0.795656    0.489901     0.004307
NI3715   NI        0.327592    0.782903    0.482501     0.004307
NI3716   NI        0.345873    0.814354    0.522052     0.004307
NI3717   NI        0.357875    0.773214    0.513209     0.004307
CU3718   CU        0.374680    0.814640    0.490684     0.006663
NI3719   NI        0.391938    0.774438    0.486410     0.004307
NI3720   NI        0.384154    0.833732    0.528385     0.004307
NI3721   NI        0.415862    0.802780    0.525914     0.004307
NI3722   NI        0.420597    0.828763    0.489665     0.004307
NI3723   NI        0.453834    0.801553    0.490580     0.004307
NI3724   NI        0.453344    0.831026    0.525269     0.004307
CU3725   CU        0.487398    0.802642    0.523135     0.006663
NI3726   NI        0.488336    0.831051    0.490994     0.004307
CU3727   CU        0.523739    0.798950    0.490173     0.006663
NI3728   NI        0.522274    0.829690    0.523695     0.004307
NI3729   NI        0.560008    0.800907    0.525392     0.004307
NI3730   NI        0.558362    0.829952    0.491746     0.004307
NI3731   NI        0.594447    0.798257    0.492993     0.004307
NI3732   NI        0.593749    0.829480    0.526039     0.004307
NI3733   NI        0.630154    0.796199    0.525476     0.004307
NI3734   NI        0.625628    0.829066    0.492220     0.004307
NI3735   NI        0.662819    0.798860    0.492757     0.004307
CU3736   CU        0.662816    0.829075    0.525633     0.006663
NI3737   NI        0.697507    0.798880    0.523712     0.004307
NI3738   NI        0.694172    0.831092    0.493484     0.004307
NI3739   NI        0.729329    0.798982    0.492889     0.004307
NI3740   NI        0.766314    0.795310    0.524792     0.004307
NI3741   NI        0.240107    0.868586    0.494221     0.004307
NI3742   NI        0.303387    0.827395    0.509228     0.004307
NI3743   NI        0.340141    0.847434    0.491950     0.004307
NI3744   NI        0.346865    0.863061    0.531438     0.004307
NI3745   NI        0.350626    0.889921    0.489561     0.004307
CU3746   CU        0.383567    0.857996    0.489246     0.006663
NI3747   NI        0.383678    0.889339    0.522074     0.004307
NI3748   NI        0.419141    0.862064    0.523049     0.004307
NI3749   NI        0.417409    0.891110    0.491551     0.004307
NI3750   NI        0.452469    0.863764    0.491464     0.004307
CU3751   CU        0.452818    0.890645    0.528267     0.006663
NI3752   NI        0.488393    0.863023    0.523395     0.004307
NI3753   NI        0.488273    0.893102    0.492449     0.004307
NI3754   NI        0.523444    0.862342    0.491566     0.004307
NI3755   NI        0.523914    0.893273    0.520632     0.004307
NI3756   NI        0.557216    0.859051    0.523940     0.004307
NI3757   NI        0.557075    0.891233    0.492190     0.004307
NI3758   NI        0.593032    0.860123    0.489075     0.004307
NI3759   NI        0.627627    0.860034    0.526477     0.004307
NI3760   NI        0.661622    0.861767    0.494048     0.004307
NI3761   NI        0.416576    0.015149    0.556824     0.004307
NI3762   NI        0.491818    0.011740    0.554969     0.004307
CU3763   CU        0.209836    0.075947    0.559934     0.006663
NI3764   NI        0.244874    0.074107    0.587013     0.004307
NI3765   NI        0.279630    0.074014    0.559050     0.004307
NI3766   NI        0.312389    0.039743    0.557909     0.004307
CU3767   CU        0.312597    0.071419    0.590604     0.006663
NI3768   NI        0.347147    0.040352    0.592106     0.004307
NI3769   NI        0.345526    0.070451    0.557011     0.004307
NI3770   NI        0.375348    0.036999    0.557287     0.004307
CU3771   CU        0.380511    0.071031    0.588972     0.006663
NI3772   NI        0.420946    0.045521    0.591719     0.004307
CU3773   CU        0.413674    0.064825    0.553183     0.006663
NI3774   NI        0.453081    0.041545    0.560255     0.004307
NI3775   NI        0.457930    0.074685    0.591719     0.004307
NI3776   NI        0.491592    0.039738    0.590983     0.004307
CU3777   CU        0.490165    0.072729    0.559420     0.006663
CU3778   CU        0.524251    0.043100    0.557253     0.006663
NI3779   NI        0.523821    0.071614    0.593097     0.004307
NI3780   NI        0.555410    0.039217    0.594539     0.004307
NI3781   NI        0.561984    0.070529    0.558664     0.004307
NI3782   NI        0.597445    0.040674    0.553114     0.004307
NI3783   NI        0.592950    0.070266    0.589795     0.004307
NI3784   NI        0.626902    0.071523    0.557155     0.004307
NI3785   NI        0.660383    0.070215    0.588905     0.004307
NI3786   NI        0.694197    0.034302    0.525128     0.004307
NI3787   NI        0.143294    0.139596    0.555519     0.004307
NI3788   NI        0.177655    0.105027    0.555629     0.004307
NI3789   NI        0.177447    0.139935    0.589603     0.004307
CU3790   CU        0.210396    0.107773    0.590011     0.006663
NI3791   NI        0.209908    0.138672    0.556401     0.004307
NI3792   NI        0.245474    0.103732    0.554924     0.004307
NI3793   NI        0.245068    0.139199    0.588167     0.004307
CU3794   CU        0.278654    0.106710    0.587975     0.006663
CU3795   CU        0.277640    0.137426    0.556386     0.006663
NI3796   NI        0.312245    0.104162    0.556586     0.004307
CU3797   CU        0.312148    0.137091    0.587141     0.006663
CU3798   CU        0.345095    0.103296    0.588473     0.006663
NI3799   NI        0.345674    0.130535    0.555796     0.004307
NI3800   NI        0.381520    0.098562    0.557230     0.004307
NI3801   NI        0.387728    0.152269    0.581522     0.004307
CU3802   CU        0.419448    0.094802    0.584316     0.006663
NI3803   NI        0.419545    0.127880    0.555056     0.004307
NI3804   NI        0.449493    0.093665    0.551594     0.004307
NI3805   NI        0.451017    0.151040    0.579765     0.004307
NI3806   NI        0.492193    0.104950    0.591456     0.004307
NI3807   NI        0.484368    0.149915    0.551767     0.004307
NI3808   NI        0.527581    0.102260    0.559886     0.004307
NI3809   NI        0.525945    0.134565    0.593478     0.004307
CU3810   CU        0.559336    0.101358    0.590319     0.006663
NI3811   NI        0.561445    0.133416    0.559549     0.004307
CU3812   CU        0.595508    0.102442    0.558578     0.006663
CU3813   CU        0.594694    0.134623    0.591938     0.006663
NI3814   NI        0.628892    0.102302    0.590514     0.004307
CU3815   CU        0.629127    0.135507    0.558489     0.006663
NI3816   NI        0.661556    0.100846    0.556818     0.004307
NI3817   NI        0.659701    0.134688    0.589297     0.004307
CU3818   CU        0.690691    0.104406    0.588233     0.006663
NI3819   NI        0.694633    0.133999    0.557992     0.004307
NI3820   NI        0.724119    0.101741    0.559483     0.004307
CU3821   CU        0.723746    0.132334    0.592746     0.006663
NI3822   NI        0.768697    0.145406    0.556776     0.004307
NI3823   NI        0.077501    0.206460    0.554818     0.004307
NI3824   NI        0.110649    0.170478    0.554906     0.004307
NI3825   NI        0.111112    0.205906    0.587988     0.004307
CU3826   CU        0.145227    0.174414    0.586991     0.006663
CU3827   CU        0.139031    0.204782    0.555263     0.006663
CU3828   CU        0.177661    0.171886    0.556283     0.006663
NI3829   NI        0.176745    0.207181    0.588769     0.004307
NI3830   NI        0.210137    0.172686    0.588954     0.004307
NI3831   NI        0.208717    0.205880    0.557030     0.004307
NI3832   NI        0.241346    0.169691    0.557192     0.004307
CU3833   CU        0.244571    0.203566    0.587902     0.006663
CU3834   CU        0.279317    0.171642    0.588531     0.006663
NI3835   NI        0.273745    0.201448    0.552814     0.004307
NI3836   NI        0.312400    0.166321    0.555606     0.004307
NI3837   NI        0.324011    0.218074    0.583655     0.004307
NI3838   NI        0.356226    0.186339    0.584429     0.004307
NI3839   NI        0.354170    0.217169    0.550000     0.004307
NI3840   NI        0.388926    0.186131    0.551754     0.004307
NI3841   NI        0.388468    0.217359    0.580189     0.004307
NI3842   NI        0.419491    0.184411    0.583089     0.004307
CU3843   CU        0.421296    0.217410    0.551094     0.006663
CU3844   CU        0.453445    0.186181    0.548911     0.006663
CU3845   CU        0.453413    0.216331    0.581514     0.006663
NI3846   NI        0.485898    0.184208    0.580469     0.004307
CU3847   CU        0.484793    0.216678    0.550508     0.006663
NI3848   NI        0.520370    0.182551    0.547659     0.004307
NI3849   NI        0.520509    0.215053    0.579221     0.004307
NI3850   NI        0.559314    0.164444    0.592312     0.004307
CU3851   CU        0.556036    0.214523    0.548635     0.006663
NI3852   NI        0.595056    0.168303    0.560046     0.004307
NI3853   NI        0.589314    0.216100    0.581560     0.004307
NI3854   NI        0.629465    0.166629    0.590425     0.004307
NI3855   NI        0.630173    0.202189    0.557474     0.004307
NI3856   NI        0.661561    0.169637    0.559342     0.004307
CU3857   CU        0.663182    0.199835    0.590375     0.006663
NI3858   NI        0.693065    0.167186    0.589519     0.004307
NI3859   NI        0.674950    0.209883    0.547847     0.004307
NI3860   NI        0.703698    0.175561    0.546271     0.004307
NI3861   NI        0.707693    0.206737    0.577235     0.004307
NI3862   NI        0.770135    0.175146    0.590569     0.004307
CU3863   CU        0.769215    0.212348    0.557966     0.006663
NI3864   NI        0.800463    0.178404    0.557511     0.004307
NI3865   NI        0.799267    0.211163    0.593187     0.004307
NI3866   NI        0.832027    0.210826    0.558979     0.004307
NI3867   NI        0.075738    0.241331    0.652600     0.004307
NI3868   NI        0.075079    0.274597    0.557328     0.004307
NI3869   NI        0.108186    0.239386    0.558102     0.004307
NI3870   NI        0.109507    0.274893    0.590412     0.004307
CU3871   CU        0.141006    0.240157    0.590126     0.006663
NI3872   NI        0.139657    0.274789    0.556267     0.004307
NI3873   NI        0.174939    0.235932    0.558312     0.004307
NI3874   NI        0.179599    0.274202    0.595273     0.004307
CU3875   CU        0.208558    0.239034    0.590556     0.006663
NI3876   NI        0.224235    0.282761    0.551178     0.004307
NI3877   NI        0.258515    0.249752    0.550129     0.004307
NI3878   NI        0.256313    0.282660    0.581655     0.004307
NI3879   NI        0.289978    0.252107    0.582607     0.004307
NI3880   NI        0.287696    0.283349    0.548238     0.004307
CU3881   CU        0.321339    0.252387    0.550169     0.006663
NI3882   NI        0.321315    0.285142    0.581008     0.004307
CU3883   CU        0.356437    0.252137    0.582477     0.006663
CU3884   CU        0.353834    0.285134    0.550555     0.006663
CU3885   CU        0.386655    0.250323    0.548813     0.006663
NI3886   NI        0.389711    0.285079    0.578352     0.004307
CU3887   CU        0.421188    0.252849    0.579417     0.006663
CU3888   CU        0.421589    0.285148    0.547819     0.006663
CU3889   CU        0.455179    0.250492    0.548019     0.006663
CU3890   CU        0.453840    0.285640    0.581711     0.006663
CU3891   CU        0.485647    0.249545    0.580985     0.006663
CU3892   CU        0.488167    0.283132    0.551475     0.006663
CU3893   CU        0.519291    0.250410    0.552117     0.006663
CU3894   CU        0.522011    0.283749    0.581595     0.006663
NI3895   NI        0.553629    0.248602    0.581437     0.004307
NI3896   NI        0.554243    0.281394    0.551484     0.004307
CU3897   CU        0.589243    0.251158    0.552213     0.006663
CU3898   CU        0.587710    0.284179    0.582889     0.006663
CU3899   CU        0.620527    0.250740    0.583706     0.006663
NI3900   NI        0.619551    0.284055    0.550900     0.004307
NI3901   NI        0.650215    0.245539    0.551165     0.004307
NI3902   NI        0.652222    0.282827    0.584420     0.004307
NI3903   NI        0.704219    0.249802    0.589109     0.004307
NI3904   NI        0.685400    0.279589    0.556195     0.004307
NI3905   NI        0.735575    0.244057    0.556580     0.004307
NI3906   NI        0.737425    0.277091    0.590363     0.004307
CU3907   CU        0.767922    0.243169    0.590500     0.006663
NI3908   NI        0.769129    0.274724    0.557101     0.004307
NI3909   NI        0.801922    0.241593    0.557455     0.004307
NI3910   NI        0.802157    0.276386    0.588332     0.004307
NI3911   NI        0.832248    0.242444    0.590384     0.004307
NI3912   NI        0.832945    0.275741    0.558543     0.004307
NI3913   NI        0.042952    0.312702    0.556368     0.004307
NI3914   NI        0.045309    0.342774    0.592663     0.004307
NI3915   NI        0.076857    0.309680    0.592316     0.004307
NI3916   NI        0.074374    0.342306    0.556171     0.004307
NI3917   NI        0.106013    0.308825    0.558587     0.004307
CU3918   CU        0.106966    0.343653    0.590754     0.006663
NI3919   NI        0.141989    0.308828    0.590557     0.004307
NI3920   NI        0.140043    0.343343    0.559426     0.004307
NI3921   NI        0.187646    0.316308    0.553252     0.004307
NI3922   NI        0.181919    0.351113    0.581529     0.004307
CU3923   CU        0.219645    0.315099    0.582581     0.006663
NI3924   NI        0.218494    0.348733    0.551381     0.004307
CU3925   CU        0.254179    0.316890    0.550847     0.006663
CU3926   CU        0.250906    0.347860    0.583172     0.006663
CU3927   CU        0.288120    0.316332    0.580082     0.006663
NI3928   NI        0.284709    0.350630    0.550828     0.004307
CU3929   CU        0.322265    0.319732    0.552189     0.006663
CU3930   CU        0.320852    0.350256    0.580809     0.006663
CU3931   CU        0.354600    0.318837    0.583109     0.006663
NI3932   NI        0.355158    0.349813    0.552020     0.004307
CU3933   CU        0.387273    0.318280    0.548302     0.006663
NI3934   NI        0.386865    0.350573    0.585669     0.004307
CU3935   CU        0.421020    0.317320    0.584515     0.006663
CU3936   CU        0.419220    0.348428    0.554619     0.006663
CU3937   CU        0.454935    0.317596    0.548682     0.006663
CU3938   CU        0.455828    0.350556    0.582632     0.006663
NI3939   NI        0.489219    0.315683    0.582822     0.004307
CU3940   CU        0.487997    0.350187    0.553979     0.006663
CU3941   CU        0.520188    0.315152    0.551101     0.006663
CU3942   CU        0.520870    0.348726    0.583168     0.006663
NI3943   NI        0.553008    0.317312    0.584942     0.004307
CU3944   CU        0.553882    0.346841    0.553591     0.006663
CU3945   CU        0.586673    0.315821    0.549589     0.006663
CU3946   CU        0.588169    0.350069    0.584926     0.006663
CU3947   CU        0.622856    0.316887    0.583329     0.006663
CU3948   CU        0.619198    0.348417    0.551687     0.006663
NI3949   NI        0.652059    0.315488    0.552138     0.004307
CU3950   CU        0.654651    0.349935    0.582640     0.006663
NI3951   NI        0.683089    0.313404    0.584321     0.004307
NI3952   NI        0.688810    0.350723    0.551111     0.004307
NI3953   NI        0.739844    0.308425    0.557830     0.004307
CU3954   CU        0.738984    0.341954    0.588024     0.006663
NI3955   NI        0.769473    0.311162    0.589455     0.004307
NI3956   NI        0.769266    0.343810    0.557161     0.004307
CU3957   CU        0.801379    0.310354    0.559336     0.006663
NI3958   NI        0.801399    0.345172    0.590773     0.004307
NI3959   NI        0.834208    0.309359    0.589076     0.004307
NI3960   NI        0.833927    0.345589    0.557356     0.004307
NI3961   NI        0.863879    0.309248    0.557205     0.004307
NI3962   NI        0.864553    0.346151    0.587112     0.004307
NI3963   NI        0.000667    0.418201    0.544968     0.004307
NI3964   NI        0.038675    0.378835    0.553501     0.004307
NI3965   NI        0.030146    0.417298    0.577652     0.004307
NI3966   NI        0.074374    0.377193    0.593895     0.004307
NI3967   NI        0.067563    0.417345    0.552727     0.004307
NI3968   NI        0.102715    0.377469    0.558501     0.004307
NI3969   NI        0.109153    0.412192    0.596033     0.004307
NI3970   NI        0.137284    0.376206    0.592421     0.004307
NI3971   NI        0.153673    0.417609    0.553856     0.004307
NI3972   NI        0.186847    0.384750    0.549897     0.004307
NI3973   NI        0.187024    0.417736    0.582143     0.004307
NI3974   NI        0.218732    0.383412    0.583795     0.004307
CU3975   CU        0.219981    0.417116    0.552357     0.006663
CU3976   CU        0.249965    0.380215    0.551106     0.006663
CU3977   CU        0.252629    0.414615    0.583828     0.006663
CU3978   CU        0.286641    0.383984    0.583492     0.006663
CU3979   CU        0.286746    0.417023    0.551865     0.006663
CU3980   CU        0.320595    0.384279    0.550560     0.006663
NI3981   NI        0.321321    0.417847    0.583288     0.004307
CU3982   CU        0.354777    0.384509    0.581978     0.006663
CU3983   CU        0.351962    0.417156    0.550951     0.006663
NI3984   NI        0.387350    0.384895    0.551704     0.004307
CU3985   CU        0.387004    0.418185    0.585597     0.006663
CU3986   CU        0.421540    0.384315    0.584086     0.006663
CU3987   CU        0.418568    0.418381    0.551884     0.006663
CU3988   CU        0.451520    0.383032    0.553154     0.006663
NI3989   NI        0.454787    0.414905    0.583763     0.004307
CU3990   CU        0.489544    0.385228    0.581588     0.006663
CU3991   CU        0.488382    0.417430    0.553526     0.006663
CU3992   CU        0.523755    0.381997    0.552075     0.006663
CU3993   CU        0.522450    0.415933    0.584999     0.006663
CU3994   CU        0.555083    0.382801    0.583995     0.006663
CU3995   CU        0.554751    0.418357    0.552761     0.006663
NI3996   NI        0.589456    0.382492    0.550580     0.004307
CU3997   CU        0.588597    0.414985    0.582883     0.006663
NI3998   NI        0.621123    0.379671    0.586003     0.004307
CU3999   CU        0.622773    0.416001    0.551031     0.006663
NI4000   NI        0.653579    0.383405    0.551861     0.004307
NI4001   NI        0.656693    0.415882    0.585525     0.004307
CU4002   CU        0.690957    0.381087    0.584000     0.006663
NI4003   NI        0.685955    0.418297    0.552198     0.004307
NI4004   NI        0.732379    0.375813    0.558170     0.004307
NI4005   NI        0.718356    0.419745    0.582235     0.004307
CU4006   CU        0.769080    0.379811    0.587703     0.006663
NI4007   NI        0.752803    0.416015    0.552735     0.004307
NI4008   NI        0.804240    0.378656    0.558589     0.004307
NI4009   NI        0.800713    0.412226    0.588391     0.004307
NI4010   NI        0.834275    0.380586    0.591592     0.004307
NI4011   NI        0.834008    0.413993    0.556224     0.004307
NI4012   NI        0.865954    0.379599    0.556967     0.004307
NI4013   NI        0.864209    0.417279    0.588524     0.004307
CU4014   CU        0.895771    0.414740    0.554071     0.006663
NI4015   NI        0.000844    0.484801    0.545744     0.004307
CU4016   CU        0.032890    0.449958    0.547772     0.006663
NI4017   NI        0.028465    0.484301    0.578682     0.004307
NI4018   NI        0.074175    0.443147    0.592210     0.004307
CU4019   CU        0.063442    0.484234    0.552753     0.006663
NI4020   NI        0.119622    0.450174    0.553516     0.004307
NI4021   NI        0.109218    0.475931    0.591522     0.004307
NI4022   NI        0.142037    0.447213    0.592635     0.004307
NI4023   NI        0.153481    0.479351    0.554630     0.004307
NI4024   NI        0.187187    0.449432    0.553971     0.004307
NI4025   NI        0.185026    0.482727    0.585777     0.004307
CU4026   CU        0.218849    0.449465    0.584176     0.006663
CU4027   CU        0.219756    0.482031    0.550921     0.006663
CU4028   CU        0.252877    0.449065    0.553910     0.006663
CU4029   CU        0.250432    0.480651    0.584752     0.006663
CU4030   CU        0.285156    0.448661    0.585188     0.006663
CU4031   CU        0.286530    0.482456    0.551544     0.006663
NI4032   NI        0.317288    0.449627    0.551353     0.004307
NI4033   NI        0.316775    0.482746    0.583811     0.004307
CU4034   CU        0.353229    0.450016    0.581273     0.006663
CU4035   CU        0.352254    0.481891    0.552413     0.006663
NI4036   NI        0.387289    0.451830    0.552104     0.004307
CU4037   CU        0.386725    0.481661    0.584439     0.006663
CU4038   CU        0.420130    0.449090    0.583055     0.006663
CU4039   CU        0.421001    0.483974    0.552912     0.006663
CU4040   CU        0.452065    0.448534    0.554224     0.006663
CU4041   CU        0.453478    0.483638    0.584382     0.006663
CU4042   CU        0.487509    0.451814    0.582178     0.006663
CU4043   CU        0.485966    0.483676    0.550689     0.006663
CU4044   CU        0.519566    0.452408    0.550628     0.006663
CU4045   CU        0.520952    0.485432    0.582551     0.006663
CU4046   CU        0.554897    0.449161    0.584698     0.006663
CU4047   CU        0.554603    0.483076    0.552978     0.006663
CU4048   CU        0.589347    0.450415    0.551867     0.006663
NI4049   NI        0.587506    0.482713    0.582834     0.004307
CU4050   CU        0.622718    0.450258    0.582732     0.006663
CU4051   CU        0.620700    0.485645    0.551291     0.006663
CU4052   CU        0.654383    0.450265    0.550491     0.006663
CU4053   CU        0.655139    0.483296    0.581917     0.006663
CU4054   CU        0.687142    0.450947    0.586474     0.006663
CU4055   CU        0.688134    0.482386    0.550721     0.006663
NI4056   NI        0.720245    0.449215    0.551176     0.004307
CU4057   CU        0.719313    0.482810    0.582749     0.006663
NI4058   NI        0.750472    0.449253    0.583163     0.004307
NI4059   NI        0.751782    0.481377    0.551431     0.004307
NI4060   NI        0.807854    0.449355    0.554879     0.004307
NI4061   NI        0.799758    0.487456    0.592257     0.004307
CU4062   CU        0.830208    0.451270    0.591500     0.006663
CU4063   CU        0.833502    0.487045    0.558669     0.006663
CU4064   CU        0.862520    0.453237    0.556568     0.006663
NI4065   NI        0.866260    0.485019    0.592958     0.004307
NI4066   NI        0.895550    0.484824    0.555170     0.004307
NI4067   NI        0.032896    0.518108    0.548732     0.004307
NI4068   NI        0.042831    0.561725    0.592679     0.004307
NI4069   NI        0.095579    0.518802    0.594336     0.004307
NI4070   NI        0.071085    0.555836    0.557623     0.004307
CU4071   CU        0.106616    0.527041    0.554996     0.006663
CU4072   CU        0.106735    0.561633    0.586688     0.006663
NI4073   NI        0.137800    0.528237    0.586737     0.004307
NI4074   NI        0.140396    0.559546    0.555785     0.004307
CU4075   CU        0.188014    0.511814    0.553562     0.006663
NI4076   NI        0.170184    0.561843    0.588062     0.004307
NI4077   NI        0.219814    0.513232    0.586485     0.004307
NI4078   NI        0.222151    0.546361    0.556133     0.004307
NI4079   NI        0.253226    0.515867    0.555719     0.004307
NI4080   NI        0.252831    0.550220    0.588059     0.004307
NI4081   NI        0.286108    0.515113    0.587343     0.004307
NI4082   NI        0.286386    0.547740    0.554651     0.004307
CU4083   CU        0.318383    0.514852    0.552806     0.006663
CU4084   CU        0.318661    0.549911    0.583965     0.006663
CU4085   CU        0.350404    0.517266    0.583980     0.006663
CU4086   CU        0.352411    0.550293    0.552386     0.006663
CU4087   CU        0.384685    0.516595    0.551856     0.006663
CU4088   CU        0.386076    0.549111    0.582464     0.006663
CU4089   CU        0.419620    0.517285    0.583375     0.006663
CU4090   CU        0.418569    0.549612    0.550623     0.006663
CU4091   CU        0.451933    0.518551    0.551897     0.006663
CU4092   CU        0.451202    0.552059    0.582789     0.006663
NI4093   NI        0.486612    0.517854    0.583987     0.004307
CU4094   CU        0.486438    0.551264    0.552633     0.006663
CU4095   CU        0.519821    0.516951    0.550030     0.006663
CU4096   CU        0.519412    0.550053    0.583235     0.006663
CU4097   CU        0.554956    0.517965    0.582023     0.006663
CU4098   CU        0.552691    0.550139    0.551428     0.006663
NI4099   NI        0.587943    0.515616    0.553331     0.004307
NI4100   NI        0.586378    0.551567    0.584930     0.004307
NI4101   NI        0.622011    0.517638    0.583115     0.004307
NI4102   NI        0.619404    0.550424    0.553131     0.004307
CU4103   CU        0.656030    0.516262    0.549544     0.006663
NI4104   NI        0.655296    0.548657    0.580265     0.004307
NI4105   NI        0.688326    0.515222    0.581121     0.004307
CU4106   CU        0.687843    0.547728    0.550721     0.006663
NI4107   NI        0.722092    0.513281    0.552886     0.004307
NI4108   NI        0.732168    0.556499    0.591170     0.004307
NI4109   NI        0.755464    0.515982    0.580893     0.004307
NI4110   NI        0.766130    0.560373    0.559078     0.004307
NI4111   NI        0.799339    0.525107    0.559589     0.004307
CU4112   CU        0.798691    0.558558    0.590847     0.006663
NI4113   NI        0.832277    0.521119    0.589677     0.004307
NI4114   NI        0.835275    0.556667    0.560502     0.004307
CU4115   CU        0.865467    0.521988    0.555803     0.006663
NI4116   NI        0.862769    0.557292    0.591748     0.004307
CU4117   CU        0.041942    0.591974    0.556193     0.006663
NI4118   NI        0.074270    0.592553    0.589011     0.004307
NI4119   NI        0.073678    0.627109    0.554823     0.004307
NI4120   NI        0.104270    0.590303    0.556314     0.004307
NI4121   NI        0.106375    0.625766    0.589075     0.004307
NI4122   NI        0.140220    0.592757    0.590155     0.004307
NI4123   NI        0.140198    0.624189    0.555552     0.004307
NI4124   NI        0.171704    0.593556    0.557112     0.004307
CU4125   CU        0.172405    0.624262    0.589648     0.006663
NI4126   NI        0.204032    0.593880    0.588406     0.004307
NI4127   NI        0.205157    0.624813    0.556216     0.004307
NI4128   NI        0.254646    0.580264    0.554233     0.004307
CU4129   CU        0.235491    0.628701    0.588164     0.006663
NI4130   NI        0.285878    0.582679    0.587776     0.004307
CU4131   CU        0.286601    0.611125    0.554797     0.006663
NI4132   NI        0.319128    0.582403    0.553858     0.004307
NI4133   NI        0.321243    0.611621    0.585758     0.004307
CU4134   CU        0.353480    0.581728    0.584914     0.006663
CU4135   CU        0.353160    0.616155    0.552152     0.006663
CU4136   CU        0.382975    0.582017    0.552144     0.006663
CU4137   CU        0.385537    0.614386    0.583688     0.006663
NI4138   NI        0.416963    0.584053    0.584614     0.004307
CU4139   CU        0.418823    0.614788    0.550843     0.006663
CU4140   CU        0.452634    0.582199    0.552135     0.006663
CU4141   CU        0.452850    0.617222    0.583220     0.006663
CU4142   CU        0.485662    0.585421    0.582310     0.006663
CU4143   CU        0.485337    0.616651    0.552403     0.006663
CU4144   CU        0.518355    0.585130    0.551144     0.006663
CU4145   CU        0.517046    0.616870    0.582606     0.006663
CU4146   CU        0.551497    0.583323    0.581117     0.006663
NI4147   NI        0.562526    0.625693    0.562038     0.004307
CU4148   CU        0.584200    0.583822    0.551528     0.006663
NI4149   NI        0.594531    0.627195    0.594868     0.004307
NI4150   NI        0.619336    0.583096    0.582765     0.004307
NI4151   NI        0.623175    0.614895    0.550805     0.004307
CU4152   CU        0.664338    0.594901    0.557572     0.006663
CU4153   CU        0.668649    0.626056    0.592517     0.006663
NI4154   NI        0.701442    0.591819    0.592081     0.004307
NI4155   NI        0.697598    0.628447    0.559391     0.004307
NI4156   NI        0.735726    0.595125    0.560551     0.004307
CU4157   CU        0.733344    0.626365    0.591458     0.006663
NI4158   NI        0.765666    0.592778    0.591348     0.004307
CU4159   CU        0.768274    0.627676    0.558591     0.006663
CU4160   CU        0.802349    0.593543    0.560182     0.006663
NI4161   NI        0.799721    0.626735    0.589835     0.004307
NI4162   NI        0.832543    0.591684    0.590145     0.004307
NI4163   NI        0.832424    0.626899    0.559319     0.004307
CU4164   CU        0.863969    0.592080    0.558958     0.006663
NI4165   NI        0.076052    0.659898    0.585828     0.004307
NI4166   NI        0.075833    0.690735    0.556407     0.004307
CU4167   CU        0.108647    0.660286    0.556224     0.006663
NI4168   NI        0.108882    0.693027    0.587701     0.004307
NI4169   NI        0.141465    0.659034    0.590801     0.004307
NI4170   NI        0.142650    0.693748    0.558414     0.004307
NI4171   NI        0.173812    0.657756    0.557971     0.004307
NI4172   NI        0.173466    0.693581    0.591053     0.004307
NI4173   NI        0.205947    0.662001    0.590420     0.004307
NI4174   NI        0.204852    0.694886    0.557199     0.004307
CU4175   CU        0.236457    0.658444    0.555461     0.006663
NI4176   NI        0.239206    0.693607    0.590599     0.004307
NI4177   NI        0.292706    0.644222    0.583430     0.004307
CU4178   CU        0.293962    0.678901    0.552955     0.006663
NI4179   NI        0.323112    0.646100    0.552368     0.004307
NI4180   NI        0.321857    0.678748    0.586108     0.004307
NI4181   NI        0.355736    0.648522    0.583062     0.004307
CU4182   CU        0.355209    0.679320    0.551184     0.006663
NI4183   NI        0.387785    0.646572    0.550819     0.004307
NI4184   NI        0.390089    0.681852    0.584250     0.004307
CU4185   CU        0.420119    0.649588    0.581813     0.006663
CU4186   CU        0.422617    0.684287    0.551132     0.006663
CU4187   CU        0.452172    0.650656    0.551780     0.006663
CU4188   CU        0.452957    0.683291    0.584796     0.006663
NI4189   NI        0.483897    0.651399    0.582830     0.004307
NI4190   NI        0.487658    0.684529    0.553137     0.004307
CU4191   CU        0.518652    0.649989    0.550599     0.006663
NI4192   NI        0.517558    0.683473    0.584460     0.004307
CU4193   CU        0.561636    0.658940    0.592929     0.006663
CU4194   CU        0.562163    0.697137    0.562396     0.006663
CU4195   CU        0.590678    0.661433    0.559447     0.006663
NI4196   NI        0.595115    0.696101    0.590620     0.004307
NI4197   NI        0.627374    0.663384    0.594077     0.004307
NI4198   NI        0.629533    0.697559    0.562101     0.004307
CU4199   CU        0.667383    0.663896    0.559973     0.006663
NI4200   NI        0.664949    0.695628    0.591606     0.004307
NI4201   NI        0.698575    0.660828    0.589548     0.004307
NI4202   NI        0.699836    0.696295    0.558356     0.004307
NI4203   NI        0.729587    0.662501    0.556387     0.004307
NI4204   NI        0.729242    0.694592    0.589472     0.004307
CU4205   CU        0.765395    0.661776    0.589095     0.006663
NI4206   NI        0.765878    0.694041    0.556893     0.004307
NI4207   NI        0.798289    0.660405    0.556707     0.004307
CU4208   CU        0.799195    0.694983    0.586259     0.006663
NI4209   NI        0.830378    0.658472    0.588717     0.004307
CU4210   CU        0.831435    0.693122    0.558260     0.006663
CU4211   CU        0.109374    0.726108    0.555974     0.006663
CU4212   CU        0.143263    0.726605    0.587789     0.006663
NI4213   NI        0.141274    0.758523    0.555657     0.004307
NI4214   NI        0.173890    0.728103    0.555616     0.004307
CU4215   CU        0.174936    0.761785    0.590758     0.006663
NI4216   NI        0.205617    0.726213    0.592231     0.004307
NI4217   NI        0.205315    0.762061    0.559134     0.004307
NI4218   NI        0.251538    0.751433    0.552515     0.004307
CU4219   CU        0.237757    0.762470    0.591929     0.006663
NI4220   NI        0.285327    0.708401    0.587133     0.004307
NI4221   NI        0.313937    0.753977    0.551841     0.004307
NI4222   NI        0.324338    0.710649    0.545458     0.004307
CU4223   CU        0.344551    0.753824    0.582486     0.006663
NI4224   NI        0.357394    0.710879    0.577975     0.004307
NI4225   NI        0.356028    0.741813    0.543909     0.004307
NI4226   NI        0.389120    0.710883    0.548722     0.004307
NI4227   NI        0.385008    0.770031    0.592310     0.004307
NI4228   NI        0.420611    0.715146    0.586466     0.004307
NI4229   NI        0.420336    0.770612    0.560912     0.004307
NI4230   NI        0.454274    0.716826    0.554285     0.004307
NI4231   NI        0.452824    0.748582    0.585674     0.004307
NI4232   NI        0.485611    0.720053    0.586233     0.004307
NI4233   NI        0.488111    0.749848    0.554600     0.004307
NI4234   NI        0.517459    0.715929    0.555677     0.004307
NI4235   NI        0.520871    0.749284    0.588200     0.004307
NI4236   NI        0.560691    0.730368    0.594357     0.004307
NI4237   NI        0.554262    0.745605    0.552895     0.004307
NI4238   NI        0.594360    0.730375    0.561983     0.004307
NI4239   NI        0.595148    0.762292    0.592453     0.004307
CU4240   CU        0.627648    0.730294    0.591456     0.006663
CU4241   CU        0.627423    0.763763    0.558965     0.006663
NI4242   NI        0.664703    0.729643    0.559249     0.004307
NI4243   NI        0.661589    0.765211    0.589190     0.004307
NI4244   NI        0.697885    0.729797    0.588229     0.004307
NI4245   NI        0.695463    0.762102    0.558169     0.004307
NI4246   NI        0.732123    0.730819    0.557348     0.004307
CU4247   CU        0.730469    0.763251    0.589137     0.006663
NI4248   NI        0.761906    0.726021    0.586883     0.004307
NI4249   NI        0.764578    0.761868    0.554338     0.004307
NI4250   NI        0.795862    0.729616    0.557055     0.004307
NI4251   NI        0.174239    0.793281    0.558236     0.004307
NI4252   NI        0.206305    0.797505    0.594179     0.004307
NI4253   NI        0.207656    0.826859    0.559247     0.004307
NI4254   NI        0.238243    0.794160    0.560752     0.004307
NI4255   NI        0.239988    0.829050    0.591252     0.004307
NI4256   NI        0.310953    0.783805    0.580677     0.004307
NI4257   NI        0.310955    0.816609    0.551051     0.004307
CU4258   CU        0.344328    0.785600    0.552998     0.006663
NI4259   NI        0.313879    0.828562    0.591452     0.004307
CU4260   CU        0.349271    0.800173    0.594063     0.006663
CU4261   CU        0.351522    0.829820    0.560780     0.006663
CU4262   CU        0.385716    0.800567    0.561141     0.006663
NI4263   NI        0.382966    0.833148    0.591274     0.004307
NI4264   NI        0.416499    0.802469    0.592981     0.004307
CU4265   CU        0.416405    0.833733    0.558799     0.006663
NI4266   NI        0.449378    0.802965    0.557177     0.004307
CU4267   CU        0.451379    0.830404    0.592246     0.006663
CU4268   CU        0.487753    0.801025    0.590624     0.006663
NI4269   NI        0.487469    0.830202    0.558642     0.004307
NI4270   NI        0.524082    0.803247    0.558755     0.004307
NI4271   NI        0.523296    0.829988    0.593169     0.004307
NI4272   NI        0.558213    0.800537    0.593125     0.004307
CU4273   CU        0.558638    0.829978    0.559643     0.006663
NI4274   NI        0.595321    0.797944    0.558353     0.004307
NI4275   NI        0.594005    0.829086    0.589014     0.004307
NI4276   NI        0.628419    0.795865    0.589608     0.004307
NI4277   NI        0.629883    0.828950    0.557647     0.004307
NI4278   NI        0.662990    0.798168    0.557562     0.004307
NI4279   NI        0.662926    0.827470    0.591422     0.004307
NI4280   NI        0.697442    0.793767    0.587638     0.004307
NI4281   NI        0.695568    0.829155    0.559549     0.004307
NI4282   NI        0.732164    0.792761    0.556523     0.004307
NI4283   NI        0.317490    0.862602    0.561835     0.004307
NI4284   NI        0.349637    0.860628    0.591179     0.004307
NI4285   NI        0.382060    0.864667    0.559839     0.004307
CU4286   CU        0.418576    0.864153    0.590363     0.006663
NI4287   NI        0.456536    0.892365    0.592095     0.004307
NI4288   NI        0.452785    0.861730    0.561286     0.004307
CU4289   CU        0.486091    0.859620    0.592992     0.006663
NI4290   NI        0.487730    0.891589    0.560603     0.004307
NI4291   NI        0.523483    0.858024    0.556676     0.004307
NI4292   NI        0.558492    0.860315    0.591313     0.004307
CU4293   CU        0.593797    0.861310    0.559600     0.006663
NI4294   NI        0.278152    0.075515    0.618681     0.004307
NI4295   NI        0.313973    0.073851    0.649300     0.004307
NI4296   NI        0.349212    0.072788    0.622289     0.004307
NI4297   NI        0.383357    0.042992    0.621171     0.004307
NI4298   NI        0.384467    0.073073    0.652580     0.004307
NI4299   NI        0.416002    0.074717    0.622583     0.004307
NI4300   NI        0.454403    0.043251    0.621263     0.004307
CU4301   CU        0.450848    0.072944    0.653002     0.006663
NI4302   NI        0.489614    0.071507    0.622611     0.004307
NI4303   NI        0.520447    0.040177    0.624451     0.004307
NI4304   NI        0.522765    0.072843    0.656416     0.004307
NI4305   NI        0.556634    0.070971    0.623460     0.004307
NI4306   NI        0.592828    0.072425    0.654894     0.004307
NI4307   NI        0.628743    0.071061    0.621878     0.004307
NI4308   NI        0.208364    0.139388    0.619642     0.004307
NI4309   NI        0.243132    0.107615    0.620304     0.004307
NI4310   NI        0.248812    0.139439    0.649995     0.004307
NI4311   NI        0.279795    0.107650    0.652193     0.004307
NI4312   NI        0.280152    0.139862    0.618818     0.004307
CU4313   CU        0.312854    0.106241    0.618681     0.006663
CU4314   CU        0.311523    0.138431    0.652267     0.006663
CU4315   CU        0.346806    0.103672    0.651272     0.006663
NI4316   NI        0.347928    0.136310    0.623202     0.004307
NI4317   NI        0.381230    0.105233    0.621205     0.004307
CU4318   CU        0.381327    0.134512    0.655881     0.006663
NI4319   NI        0.417689    0.105766    0.654724     0.004307
NI4320   NI        0.421882    0.152042    0.612575     0.004307
CU4321   CU        0.455737    0.105036    0.623913     0.006663
CU4322   CU        0.454061    0.135661    0.656268     0.006663
CU4323   CU        0.487145    0.103641    0.654775     0.006663
CU4324   CU        0.491965    0.135349    0.625513     0.006663
NI4325   NI        0.523923    0.102932    0.624884     0.004307
NI4326   NI        0.522638    0.134021    0.656151     0.004307
CU4327   CU        0.559729    0.104232    0.656293     0.006663
NI4328   NI        0.558689    0.133039    0.622655     0.004307
NI4329   NI        0.593070    0.100451    0.622115     0.004307
NI4330   NI        0.592727    0.134535    0.654649     0.004307
CU4331   CU        0.625743    0.104267    0.652758     0.006663
NI4332   NI        0.627172    0.135435    0.621272     0.004307
NI4333   NI        0.659811    0.103361    0.620137     0.004307
NI4334   NI        0.659415    0.138611    0.653359     0.004307
NI4335   NI        0.690269    0.138112    0.620220     0.004307
NI4336   NI        0.143789    0.207216    0.618648     0.004307
NI4337   NI        0.175934    0.172819    0.619746     0.004307
NI4338   NI        0.176701    0.207318    0.653206     0.004307
NI4339   NI        0.211362    0.172526    0.650827     0.004307
CU4340   CU        0.211914    0.204768    0.620354     0.006663
NI4341   NI        0.245728    0.171974    0.621147     0.004307
NI4342   NI        0.244111    0.204828    0.653145     0.004307
NI4343   NI        0.278124    0.172532    0.654430     0.004307
NI4344   NI        0.277754    0.205511    0.623189     0.004307
NI4345   NI        0.311226    0.173328    0.622506     0.004307
NI4346   NI        0.310319    0.206041    0.655822     0.004307
CU4347   CU        0.347026    0.168849    0.653759     0.006663
NI4348   NI        0.357183    0.218301    0.613625     0.004307
NI4349   NI        0.388885    0.184350    0.613740     0.004307
NI4350   NI        0.378061    0.204535    0.651701     0.004307
NI4351   NI        0.416943    0.168558    0.658722     0.004307
NI4352   NI        0.421567    0.219975    0.611159     0.004307
NI4353   NI        0.456405    0.182620    0.610230     0.004307
NI4354   NI        0.455549    0.219606    0.640204     0.004307
NI4355   NI        0.491461    0.167994    0.657039     0.004307
NI4356   NI        0.485816    0.217116    0.610684     0.004307
NI4357   NI        0.527990    0.164983    0.625183     0.004307
NI4358   NI        0.526894    0.202199    0.656418     0.004307
NI4359   NI        0.560990    0.168304    0.655828     0.004307
NI4360   NI        0.560568    0.200246    0.624155     0.004307
NI4361   NI        0.594709    0.167290    0.621288     0.004307
NI4362   NI        0.593405    0.201185    0.653574     0.004307
NI4363   NI        0.627634    0.169895    0.652669     0.004307
CU4364   CU        0.629772    0.203752    0.625329     0.006663
CU4365   CU        0.661431    0.169506    0.622527     0.006663
CU4366   CU        0.663394    0.202155    0.655411     0.006663
NI4367   NI        0.692621    0.168150    0.653153     0.004307
NI4368   NI        0.695243    0.201650    0.623951     0.004307
NI4369   NI        0.725012    0.167975    0.621071     0.004307
NI4370   NI        0.732508    0.206020    0.651037     0.004307
NI4371   NI        0.765487    0.212171    0.622024     0.004307
CU4372   CU        0.078062    0.273799    0.624165     0.006663
NI4373   NI        0.109972    0.241633    0.621213     0.004307
NI4374   NI        0.110290    0.273870    0.653277     0.004307
NI4375   NI        0.142531    0.241869    0.654106     0.004307
NI4376   NI        0.142290    0.275499    0.621744     0.004307
CU4377   CU        0.176521    0.239903    0.621133     0.006663
NI4378   NI        0.174449    0.274696    0.654154     0.004307
NI4379   NI        0.209585    0.241920    0.655200     0.004307
NI4380   NI        0.223540    0.279486    0.610344     0.004307
NI4381   NI        0.258054    0.248061    0.612736     0.004307
NI4382   NI        0.254190    0.279031    0.643904     0.004307
CU4383   CU        0.276402    0.239181    0.655139     0.006663
NI4384   NI        0.287989    0.282162    0.615824     0.004307
CU4385   CU        0.324421    0.250909    0.613322     0.006663
CU4386   CU        0.322364    0.281557    0.646657     0.006663
NI4387   NI        0.356205    0.248882    0.642987     0.004307
NI4388   NI        0.355962    0.284477    0.613673     0.004307
NI4389   NI        0.388958    0.252132    0.611412     0.004307
CU4390   CU        0.388461    0.281439    0.644967     0.006663
CU4391   CU        0.423579    0.252108    0.644215     0.006663
NI4392   NI        0.419007    0.284043    0.611756     0.004307
NI4393   NI        0.453720    0.252226    0.610181     0.004307
NI4394   NI        0.455026    0.283554    0.645734     0.004307
NI4395   NI        0.486702    0.248408    0.645789     0.004307
CU4396   CU        0.487620    0.282539    0.614402     0.006663
CU4397   CU        0.519521    0.247699    0.612360     0.006663
NI4398   NI        0.520324    0.282794    0.646009     0.004307
NI4399   NI        0.554880    0.247249    0.647281     0.004307
NI4400   NI        0.553740    0.281245    0.612543     0.004307
NI4401   NI        0.587173    0.250035    0.610415     0.004307
NI4402   NI        0.587308    0.282618    0.646442     0.004307
NI4403   NI        0.620595    0.247082    0.644163     0.004307
NI4404   NI        0.621749    0.282151    0.616059     0.004307
NI4405   NI        0.652915    0.245854    0.616062     0.004307
NI4406   NI        0.656698    0.279624    0.644835     0.004307
NI4407   NI        0.698600    0.237181    0.653418     0.004307
NI4408   NI        0.696452    0.273709    0.628207     0.004307
CU4409   CU        0.732296    0.245171    0.622480     0.006663
NI4410   NI        0.732641    0.276690    0.653136     0.004307
NI4411   NI        0.763400    0.244119    0.653172     0.004307
NI4412   NI        0.766981    0.278236    0.623195     0.004307
NI4413   NI        0.798053    0.243580    0.622252     0.004307
NI4414   NI        0.797214    0.278266    0.653412     0.004307
NI4415   NI        0.829473    0.274576    0.621552     0.004307
CU4416   CU        0.078569    0.308663    0.653757     0.006663
CU4417   CU        0.077473    0.345063    0.623789     0.006663
CU4418   CU        0.108189    0.308534    0.623033     0.006663
NI4419   NI        0.108697    0.342615    0.656459     0.004307
NI4420   NI        0.139417    0.310898    0.655675     0.004307
NI4421   NI        0.141308    0.341890    0.624669     0.004307
NI4422   NI        0.172859    0.309205    0.626698     0.004307
NI4423   NI        0.173883    0.343396    0.655650     0.004307
NI4424   NI        0.204799    0.311430    0.659164     0.004307
NI4425   NI        0.220471    0.346823    0.613234     0.004307
NI4426   NI        0.253858    0.313736    0.611741     0.004307
NI4427   NI        0.256832    0.346432    0.644255     0.004307
NI4428   NI        0.287438    0.313921    0.644546     0.004307
CU4429   CU        0.286522    0.347609    0.614186     0.006663
NI4430   NI        0.319477    0.315200    0.612570     0.004307
CU4431   CU        0.319823    0.349617    0.648383     0.006663
NI4432   NI        0.355834    0.317587    0.646984     0.004307
CU4433   CU        0.350772    0.350332    0.614205     0.006663
CU4434   CU        0.386767    0.315598    0.613920     0.006663
NI4435   NI        0.390870    0.349703    0.645457     0.004307
CU4436   CU        0.422571    0.317390    0.645880     0.006663
CU4437   CU        0.422668    0.350882    0.613984     0.006663
NI4438   NI        0.456205    0.317077    0.614127     0.004307
CU4439   CU        0.456796    0.348927    0.646136     0.006663
NI4440   NI        0.489915    0.315561    0.646477     0.004307
NI4441   NI        0.490122    0.347497    0.614237     0.004307
CU4442   CU        0.521810    0.314001    0.614057     0.006663
NI4443   NI        0.521429    0.347684    0.648461     0.004307
CU4444   CU        0.554797    0.313469    0.646504     0.006663
CU4445   CU        0.555671    0.349260    0.613523     0.006663
NI4446   NI        0.586620    0.314868    0.615860     0.004307
NI4447   NI        0.586519    0.346494    0.650553     0.004307
NI4448   NI        0.619451    0.314429    0.645280     0.004307
CU4449   CU        0.619890    0.350287    0.619618     0.006663
NI4450   NI        0.653221    0.314442    0.617129     0.004307
NI4451   NI        0.653813    0.347696    0.650102     0.004307
NI4452   NI        0.684870    0.315369    0.650635     0.004307
NI4453   NI        0.684224    0.348251    0.614284     0.004307
NI4454   NI        0.733605    0.310299    0.622221     0.004307
CU4455   CU        0.734955    0.342426    0.652950     0.006663
CU4456   CU        0.766938    0.310275    0.656748     0.006663
NI4457   NI        0.768919    0.345920    0.621560     0.004307
CU4458   CU        0.799446    0.313002    0.622545     0.006663
NI4459   NI        0.798696    0.346409    0.652140     0.004307
NI4460   NI        0.828051    0.310819    0.653370     0.004307
NI4461   NI        0.832750    0.346373    0.621435     0.004307
NI4462   NI        0.046130    0.377815    0.628223     0.004307
NI4463   NI        0.080058    0.379885    0.657878     0.004307
NI4464   NI        0.077051    0.413811    0.626080     0.004307
CU4465   CU        0.107176    0.378076    0.622764     0.006663
NI4466   NI        0.109390    0.415441    0.657715     0.004307
CU4467   CU        0.141057    0.379475    0.656084     0.006663
NI4468   NI        0.140266    0.413043    0.626574     0.004307
CU4469   CU        0.169526    0.377827    0.624148     0.006663
NI4470   NI        0.171857    0.413172    0.657746     0.004307
NI4471   NI        0.221789    0.384143    0.650491     0.004307
NI4472   NI        0.218474    0.417084    0.615707     0.004307
CU4473   CU        0.252062    0.382334    0.615508     0.006663
CU4474   CU        0.252789    0.414023    0.645694     0.006663
NI4475   NI        0.286261    0.382610    0.647193     0.004307
CU4476   CU        0.286779    0.414935    0.616528     0.006663
CU4477   CU        0.319950    0.384602    0.616427     0.006663
NI4478   NI        0.318379    0.417139    0.647598     0.004307
CU4479   CU        0.352337    0.385200    0.645133     0.006663
CU4480   CU        0.353825    0.416765    0.615907     0.006663
CU4481   CU        0.387663    0.382472    0.615856     0.006663
CU4482   CU        0.385974    0.418625    0.646757     0.006663
CU4483   CU        0.423246    0.383215    0.646846     0.006663
CU4484   CU        0.420217    0.413991    0.615689     0.006663
NI4485   NI        0.455809    0.383516    0.615623     0.004307
NI4486   NI        0.454652    0.416421    0.645816     0.004307
CU4487   CU        0.489432    0.382056    0.646506     0.006663
CU4488   CU        0.490295    0.416673    0.613992     0.006663
CU4489   CU        0.522010    0.383305    0.615722     0.006663
CU4490   CU        0.521430    0.414541    0.646951     0.006663
CU4491   CU        0.555235    0.382134    0.646758     0.006663
CU4492   CU        0.555447    0.416623    0.614831     0.006663
CU4493   CU        0.587443    0.381361    0.617740     0.006663
CU4494   CU        0.587994    0.415416    0.648893     0.006663
NI4495   NI        0.622652    0.383235    0.647710     0.004307
CU4496   CU        0.622413    0.415700    0.616625     0.006663
CU4497   CU        0.653800    0.383372    0.614521     0.006663
CU4498   CU        0.655620    0.415069    0.648510     0.006663
NI4499   NI        0.685787    0.379332    0.643908     0.004307
NI4500   NI        0.688256    0.417274    0.615590     0.004307
NI4501   NI        0.736950    0.378061    0.619619     0.004307
NI4502   NI        0.736873    0.417134    0.657212     0.004307
NI4503   NI        0.765056    0.380156    0.651946     0.004307
NI4504   NI        0.768891    0.410347    0.620856     0.004307
NI4505   NI        0.800458    0.378505    0.620761     0.004307
NI4506   NI        0.798560    0.415778    0.654231     0.004307
NI4507   NI        0.829725    0.382505    0.653244     0.004307
NI4508   NI        0.831761    0.416608    0.621760     0.004307
NI4509   NI        0.866222    0.380809    0.621066     0.004307
NI4510   NI        0.045358    0.450164    0.625868     0.004307
CU4511   CU        0.078578    0.449500    0.655017     0.006663
NI4512   NI        0.076602    0.481442    0.623691     0.004307
CU4513   CU        0.108067    0.447373    0.623138     0.006663
NI4514   NI        0.109354    0.481254    0.657240     0.004307
NI4515   NI        0.140379    0.447766    0.657189     0.004307
NI4516   NI        0.141859    0.478855    0.627503     0.004307
NI4517   NI        0.184871    0.447445    0.615119     0.004307
NI4518   NI        0.182557    0.475798    0.650035     0.004307
NI4519   NI        0.221375    0.449947    0.648797     0.004307
NI4520   NI        0.218746    0.480554    0.619123     0.004307
NI4521   NI        0.253093    0.448030    0.617163     0.004307
NI4522   NI        0.252213    0.481109    0.652809     0.004307
CU4523   CU        0.283781    0.450948    0.651717     0.006663
CU4524   CU        0.283753    0.483623    0.615555     0.006663
CU4525   CU        0.317474    0.451183    0.616029     0.006663
CU4526   CU        0.318035    0.483340    0.647822     0.006663
CU4527   CU        0.349700    0.449392    0.647568     0.006663
NI4528   NI        0.351347    0.484971    0.616129     0.004307
CU4529   CU        0.386101    0.451540    0.618073     0.006663
CU4530   CU        0.386322    0.487712    0.649245     0.006663
CU4531   CU        0.422171    0.448151    0.645412     0.006663
CU4532   CU        0.418538    0.481505    0.615972     0.006663
CU4533   CU        0.454955    0.448140    0.615083     0.006663
CU4534   CU        0.456244    0.482413    0.644388     0.006663
CU4535   CU        0.488743    0.448097    0.646436     0.006663
CU4536   CU        0.487782    0.483078    0.612751     0.006663
CU4537   CU        0.521685    0.449482    0.616092     0.006663
CU4538   CU        0.520935    0.481952    0.644921     0.006663
CU4539   CU        0.555663    0.450746    0.646938     0.006663
CU4540   CU        0.555162    0.482659    0.614909     0.006663
CU4541   CU        0.589135    0.448105    0.615637     0.006663
CU4542   CU        0.588508    0.484841    0.647899     0.006663
NI4543   NI        0.620125    0.448481    0.647412     0.004307
NI4544   NI        0.620041    0.482225    0.616339     0.004307
NI4545   NI        0.654067    0.450374    0.616078     0.004307
NI4546   NI        0.654950    0.484917    0.644913     0.004307
NI4547   NI        0.686477    0.450046    0.645038     0.004307
CU4548   CU        0.690050    0.483640    0.615164     0.006663
NI4549   NI        0.722140    0.450396    0.615536     0.004307
NI4550   NI        0.734854    0.486332    0.663042     0.004307
NI4551   NI        0.766702    0.450982    0.660986     0.004307
NI4552   NI        0.759255    0.480585    0.610290     0.004307
NI4553   NI        0.800599    0.452890    0.622138     0.004307
NI4554   NI        0.799123    0.484721    0.656604     0.004307
NI4555   NI        0.829704    0.450271    0.653060     0.004307
NI4556   NI        0.833572    0.486907    0.625039     0.004307
NI4557   NI        0.863251    0.450544    0.620595     0.004307
NI4558   NI        0.054135    0.519574    0.583522     0.004307
CU4559   CU        0.046117    0.483380    0.655693     0.006663
NI4560   NI        0.077259    0.558410    0.621469     0.004307
NI4561   NI        0.109775    0.518550    0.632685     0.004307
NI4562   NI        0.107068    0.556851    0.653708     0.004307
CU4563   CU        0.141296    0.520734    0.659530     0.006663
NI4564   NI        0.140606    0.556315    0.622536     0.004307
NI4565   NI        0.186489    0.511712    0.619410     0.004307
NI4566   NI        0.174576    0.556076    0.654584     0.004307
NI4567   NI        0.219698    0.511689    0.650469     0.004307
CU4568   CU        0.220433    0.544115    0.618898     0.006663
NI4569   NI        0.251226    0.512054    0.618876     0.004307
NI4570   NI        0.253228    0.545054    0.649335     0.004307
CU4571   CU        0.285537    0.514186    0.650606     0.006663
NI4572   NI        0.285110    0.547140    0.617269     0.004307
CU4573   CU        0.319027    0.517466    0.617689     0.006663
NI4574   NI        0.318517    0.549489    0.653411     0.004307
CU4575   CU        0.350750    0.517359    0.647027     0.006663
CU4576   CU        0.351250    0.550638    0.614721     0.006663
NI4577   NI        0.384700    0.514400    0.613551     0.004307
NI4578   NI        0.385437    0.551117    0.645206     0.004307
CU4579   CU        0.421415    0.516059    0.647139     0.006663
NI4580   NI        0.418251    0.551177    0.615260     0.004307
NI4581   NI        0.452008    0.515754    0.615816     0.004307
CU4582   CU        0.454463    0.548345    0.645823     0.006663
NI4583   NI        0.488134    0.514885    0.645332     0.004307
CU4584   CU        0.486765    0.548880    0.615316     0.006663
CU4585   CU        0.520568    0.516353    0.614393     0.006663
CU4586   CU        0.521698    0.548791    0.643826     0.006663
NI4587   NI        0.553316    0.515212    0.645439     0.004307
CU4588   CU        0.551973    0.551133    0.613340     0.006663
CU4589   CU        0.587831    0.515363    0.613492     0.006663
NI4590   NI        0.585127    0.551365    0.644992     0.004307
NI4591   NI        0.619724    0.517659    0.644792     0.004307
CU4592   CU        0.620685    0.550581    0.612999     0.006663
CU4593   CU        0.655003    0.514198    0.612953     0.006663
NI4594   NI        0.657037    0.550441    0.642029     0.004307
NI4595   NI        0.687975    0.517997    0.640212     0.004307
NI4596   NI        0.698993    0.559941    0.624365     0.004307
NI4597   NI        0.720406    0.515045    0.612501     0.004307
NI4598   NI        0.733650    0.557399    0.655578     0.004307
CU4599   CU        0.767175    0.518825    0.658506     0.006663
NI4600   NI        0.765072    0.560672    0.624755     0.004307
CU4601   CU        0.800812    0.522678    0.623226     0.006663
CU4602   CU        0.797107    0.556022    0.654078     0.006663
NI4603   NI        0.831293    0.519887    0.653767     0.004307
NI4604   NI        0.830532    0.555800    0.622607     0.004307
NI4605   NI        0.862119    0.519277    0.622853     0.004307
NI4606   NI        0.076762    0.593156    0.654399     0.004307
NI4607   NI        0.076543    0.626335    0.621153     0.004307
CU4608   CU        0.108246    0.592364    0.620638     0.006663
NI4609   NI        0.110170    0.624615    0.655913     0.004307
NI4610   NI        0.141169    0.587982    0.654057     0.004307
NI4611   NI        0.141232    0.623553    0.621487     0.004307
NI4612   NI        0.176424    0.590884    0.623491     0.004307
NI4613   NI        0.175215    0.623758    0.654972     0.004307
NI4614   NI        0.205407    0.590891    0.657249     0.004307
NI4615   NI        0.205405    0.624129    0.621872     0.004307
NI4616   NI        0.256607    0.581297    0.620377     0.004307
NI4617   NI        0.241866    0.625729    0.657644     0.004307
CU4618   CU        0.286969    0.581495    0.650609     0.006663
NI4619   NI        0.289439    0.615026    0.617793     0.004307
NI4620   NI        0.319135    0.580989    0.618932     0.004307
NI4621   NI        0.321910    0.615082    0.649595     0.004307
CU4622   CU        0.353065    0.584150    0.648536     0.006663
NI4623   NI        0.354500    0.617006    0.615225     0.004307
CU4624   CU        0.385463    0.584679    0.616948     0.006663
NI4625   NI        0.384928    0.614646    0.647637     0.004307
NI4626   NI        0.416678    0.582504    0.645145     0.004307
NI4627   NI        0.419453    0.616372    0.615738     0.004307
CU4628   CU        0.451182    0.582976    0.615430     0.006663
CU4629   CU        0.453840    0.614861    0.648552     0.006663
NI4630   NI        0.485917    0.581276    0.643469     0.004307
CU4631   CU        0.484396    0.616397    0.613764     0.006663
NI4632   NI        0.518786    0.583007    0.613506     0.004307
NI4633   NI        0.519657    0.616511    0.641237     0.004307
NI4634   NI        0.557336    0.595520    0.657814     0.004307
CU4635   CU        0.559920    0.627373    0.624611     0.006663
NI4636   NI        0.584186    0.585408    0.613144     0.004307
CU4637   CU        0.593473    0.629046    0.655375     0.006663
NI4638   NI        0.622538    0.583121    0.640374     0.004307
CU4639   CU        0.631915    0.626333    0.623574     0.006663
NI4640   NI        0.666577    0.591111    0.623802     0.004307
NI4641   NI        0.665823    0.625440    0.655541     0.004307
CU4642   CU        0.700209    0.591224    0.656590     0.006663
NI4643   NI        0.700279    0.628645    0.622162     0.004307
NI4644   NI        0.732743    0.591888    0.621718     0.004307
CU4645   CU        0.732534    0.624528    0.653118     0.006663
NI4646   NI        0.765941    0.593531    0.652349     0.004307
NI4647   NI        0.765774    0.624100    0.621442     0.004307
NI4648   NI        0.797931    0.589558    0.621336     0.004307
NI4649   NI        0.796966    0.626173    0.652963     0.004307
NI4650   NI        0.826681    0.591629    0.655308     0.004307
NI4651   NI        0.829413    0.625192    0.623517     0.004307
CU4652   CU        0.110203    0.658326    0.621912     0.006663
NI4653   NI        0.144119    0.657027    0.651543     0.004307
CU4654   CU        0.141472    0.693029    0.621379     0.006663
CU4655   CU        0.174839    0.657112    0.622079     0.006663
NI4656   NI        0.176290    0.693574    0.652106     0.004307
NI4657   NI        0.207777    0.661427    0.654771     0.004307
CU4658   CU        0.207098    0.692861    0.620443     0.006663
CU4659   CU        0.240477    0.661145    0.624722     0.006663
CU4660   CU        0.241799    0.694787    0.656548     0.006663
NI4661   NI        0.287318    0.647222    0.653220     0.004307
NI4662   NI        0.268771    0.696105    0.623917     0.004307
NI4663   NI        0.321811    0.648076    0.617289     0.004307
NI4664   NI        0.321777    0.680637    0.651523     0.004307
NI4665   NI        0.355045    0.649703    0.648934     0.004307
CU4666   CU        0.355506    0.680383    0.613814     0.006663
CU4667   CU        0.387980    0.650822    0.614437     0.006663
NI4668   NI        0.387522    0.681189    0.647437     0.004307
CU4669   CU        0.419673    0.649081    0.648086     0.006663
CU4670   CU        0.419247    0.682996    0.617617     0.006663
CU4671   CU        0.452289    0.649542    0.614339     0.006663
NI4672   NI        0.451147    0.680824    0.647347     0.004307
NI4673   NI        0.484266    0.648602    0.646731     0.004307
NI4674   NI        0.482647    0.683019    0.616025     0.004307
NI4675   NI        0.519089    0.650426    0.611457     0.004307
CU4676   CU        0.526109    0.696191    0.657736     0.006663
NI4677   NI        0.559373    0.664639    0.657721     0.004307
NI4678   NI        0.562120    0.694146    0.624861     0.004307
CU4679   CU        0.595202    0.660116    0.624865     0.006663
NI4680   NI        0.595839    0.693658    0.655281     0.004307
NI4681   NI        0.630551    0.659347    0.653729     0.004307
CU4682   CU        0.632023    0.693840    0.622777     0.006663
CU4683   CU        0.664824    0.660120    0.622773     0.006663
NI4684   NI        0.661527    0.694035    0.655523     0.004307
NI4685   NI        0.697024    0.661703    0.653469     0.004307
NI4686   NI        0.696045    0.694275    0.620321     0.004307
NI4687   NI        0.733761    0.660264    0.620872     0.004307
NI4688   NI        0.729255    0.691738    0.652874     0.004307
NI4689   NI        0.763470    0.658127    0.652615     0.004307
NI4690   NI        0.762212    0.693810    0.620611     0.004307
NI4691   NI        0.798060    0.659072    0.620686     0.004307
CU4692   CU        0.174364    0.726853    0.621479     0.006663
NI4693   NI        0.208275    0.727851    0.654103     0.004307
NI4694   NI        0.205660    0.763257    0.623624     0.004307
NI4695   NI        0.238669    0.729020    0.623356     0.004307
NI4696   NI        0.240788    0.762497    0.655563     0.004307
CU4697   CU        0.272594    0.729025    0.654515     0.006663
NI4698   NI        0.272548    0.760012    0.623043     0.004307
NI4699   NI        0.302083    0.726896    0.623961     0.004307
NI4700   NI        0.308746    0.762818    0.651894     0.004307
NI4701   NI        0.355302    0.713119    0.651673     0.004307
NI4702   NI        0.349796    0.767961    0.623425     0.004307
NI4703   NI        0.387817    0.713577    0.616388     0.004307
NI4704   NI        0.381972    0.768520    0.653428     0.004307
NI4705   NI        0.420152    0.713735    0.649816     0.004307
NI4706   NI        0.416560    0.769853    0.625341     0.004307
NI4707   NI        0.452587    0.717638    0.618805     0.004307
NI4708   NI        0.449900    0.765252    0.654701     0.004307
NI4709   NI        0.486058    0.712783    0.648734     0.004307
NI4710   NI        0.487632    0.746905    0.618500     0.004307
NI4711   NI        0.520224    0.715487    0.618103     0.004307
NI4712   NI        0.514666    0.743810    0.653734     0.004307
NI4713   NI        0.561419    0.726551    0.656899     0.004307
NI4714   NI        0.561887    0.765622    0.622323     0.004307
NI4715   NI        0.592794    0.728939    0.625121     0.004307
CU4716   CU        0.592490    0.761370    0.654259     0.006663
NI4717   NI        0.626942    0.729830    0.652865     0.004307
CU4718   CU        0.628782    0.764240    0.622782     0.006663
NI4719   NI        0.662004    0.729700    0.622454     0.004307
NI4720   NI        0.661877    0.762398    0.653480     0.004307
NI4721   NI        0.693428    0.727265    0.653012     0.004307
NI4722   NI        0.691163    0.763972    0.621710     0.004307
CU4723   CU        0.730770    0.729042    0.620235     0.006663
NI4724   NI        0.242692    0.793412    0.621707     0.004307
NI4725   NI        0.275877    0.793080    0.652854     0.004307
NI4726   NI        0.279690    0.825677    0.622753     0.004307
NI4727   NI        0.314607    0.796284    0.623709     0.004307
NI4728   NI        0.312518    0.829127    0.653794     0.004307
NI4729   NI        0.344800    0.797232    0.654231     0.004307
NI4730   NI        0.345957    0.831527    0.623941     0.004307
NI4731   NI        0.382435    0.801598    0.622999     0.004307
NI4732   NI        0.379213    0.829614    0.655222     0.004307
NI4733   NI        0.414497    0.798876    0.656560     0.004307
NI4734   NI        0.416872    0.832039    0.625609     0.004307
NI4735   NI        0.451333    0.798184    0.624159     0.004307
NI4736   NI        0.450180    0.828121    0.656632     0.004307
NI4737   NI        0.483069    0.796052    0.655422     0.004307
NI4738   NI        0.486333    0.829066    0.624027     0.004307
NI4739   NI        0.525739    0.798610    0.624889     0.004307
CU4740   CU        0.519562    0.827417    0.654954     0.006663
NI4741   NI        0.558599    0.794097    0.654378     0.004307
NI4742   NI        0.554900    0.830466    0.625600     0.004307
NI4743   NI        0.593513    0.797269    0.621761     0.004307
NI4744   NI        0.592076    0.826598    0.655488     0.004307
NI4745   NI        0.625648    0.794330    0.652567     0.004307
NI4746   NI        0.627995    0.829068    0.619647     0.004307
NI4747   NI        0.659874    0.796354    0.621013     0.004307
CU4748   CU        0.383157    0.861538    0.623249     0.006663
NI4749   NI        0.451433    0.860658    0.622009     0.004307
NI4750   NI        0.522165    0.860406    0.624635     0.004307
NI4751   NI        0.418733    0.075030    0.685138     0.004307
CU4752   CU        0.488098    0.073233    0.684316     0.006663
NI4753   NI        0.280898    0.141103    0.684209     0.004307
NI4754   NI        0.311250    0.106163    0.683033     0.004307
NI4755   NI        0.315929    0.141076    0.714693     0.004307
NI4756   NI        0.347026    0.108737    0.717338     0.004307
NI4757   NI        0.346303    0.137638    0.684208     0.004307
NI4758   NI        0.383567    0.102825    0.689098     0.004307
CU4759   CU        0.381264    0.138537    0.717061     0.006663
NI4760   NI        0.417433    0.105165    0.717983     0.004307
NI4761   NI        0.417188    0.137185    0.685847     0.004307
NI4762   NI        0.453813    0.103135    0.685125     0.004307
NI4763   NI        0.450935    0.137027    0.718041     0.004307
NI4764   NI        0.487624    0.103482    0.715026     0.004307
CU4765   CU        0.489052    0.137231    0.687467     0.006663
CU4766   CU        0.521974    0.104707    0.687156     0.006663
CU4767   CU        0.525007    0.138769    0.718068     0.006663
NI4768   NI        0.558760    0.106260    0.717401     0.004307
NI4769   NI        0.558783    0.137586    0.686574     0.004307
NI4770   NI        0.594865    0.105318    0.685092     0.004307
NI4771   NI        0.592519    0.137670    0.717195     0.004307
NI4772   NI        0.624952    0.137852    0.683669     0.004307
NI4773   NI        0.211476    0.205331    0.685531     0.004307
CU4774   CU        0.245020    0.172472    0.682249     0.006663
CU4775   CU        0.247168    0.206836    0.716969     0.006663
NI4776   NI        0.281621    0.174539    0.715142     0.004307
NI4777   NI        0.277843    0.206055    0.685826     0.004307
NI4778   NI        0.313647    0.173148    0.685933     0.004307
CU4779   CU        0.313407    0.206831    0.717690     0.006663
CU4780   CU        0.350661    0.172819    0.717084     0.006663
CU4781   CU        0.347078    0.203138    0.684289     0.006663
CU4782   CU        0.383081    0.170952    0.686579     0.006663
CU4783   CU        0.382595    0.203950    0.719252     0.006663
NI4784   NI        0.416535    0.169818    0.720156     0.004307
NI4785   NI        0.414584    0.202340    0.691099     0.004307
NI4786   NI        0.453368    0.166245    0.687042     0.004307
NI4787   NI        0.454835    0.209413    0.679323     0.004307
NI4788   NI        0.487563    0.170181    0.717243     0.004307
NI4789   NI        0.495704    0.203978    0.688882     0.004307
CU4790   CU        0.526456    0.168221    0.687019     0.006663
NI4791   NI        0.527667    0.205673    0.718367     0.004307
NI4792   NI        0.557011    0.170940    0.717480     0.004307
NI4793   NI        0.560074    0.201758    0.687511     0.004307
NI4794   NI        0.593499    0.169933    0.685380     0.004307
NI4795   NI        0.592591    0.203764    0.718170     0.004307
CU4796   CU        0.625444    0.172493    0.716325     0.006663
NI4797   NI        0.626273    0.203314    0.683749     0.004307
NI4798   NI        0.660038    0.169475    0.683903     0.004307
NI4799   NI        0.658215    0.201771    0.712434     0.004307
NI4800   NI        0.698799    0.202381    0.682367     0.004307
NI4801   NI        0.144665    0.275289    0.685231     0.004307
NI4802   NI        0.175825    0.238633    0.686422     0.004307
CU4803   CU        0.173936    0.274251    0.716851     0.006663
NI4804   NI        0.209848    0.240127    0.716180     0.004307
NI4805   NI        0.210681    0.274413    0.685874     0.004307
NI4806   NI        0.243552    0.238765    0.685813     0.004307
NI4807   NI        0.242624    0.272683    0.718094     0.004307
NI4808   NI        0.279473    0.239069    0.716124     0.004307
NI4809   NI        0.290984    0.280373    0.678761     0.004307
NI4810   NI        0.322328    0.246891    0.675313     0.004307
NI4811   NI        0.328884    0.277483    0.706468     0.004307
NI4812   NI        0.347798    0.236480    0.719784     0.004307
NI4813   NI        0.356088    0.280368    0.675438     0.004307
NI4814   NI        0.381420    0.234732    0.688573     0.004307
NI4815   NI        0.393491    0.280322    0.706674     0.004307
CU4816   CU        0.415297    0.236747    0.720455     0.006663
NI4817   NI        0.421218    0.284204    0.675052     0.004307
CU4818   CU        0.455181    0.252734    0.676614     0.006663
NI4819   NI        0.454070    0.285304    0.708209     0.004307
NI4820   NI        0.495700    0.239966    0.720912     0.004307
NI4821   NI        0.487137    0.284473    0.675251     0.004307
NI4822   NI        0.529234    0.239495    0.688756     0.004307
NI4823   NI        0.527249    0.272669    0.720034     0.004307
NI4824   NI        0.561085    0.238112    0.719891     0.004307
NI4825   NI        0.559573    0.272349    0.683353     0.004307
NI4826   NI        0.590986    0.234292    0.682942     0.004307
CU4827   CU        0.593807    0.270957    0.709020     0.006663
NI4828   NI        0.626916    0.236558    0.708835     0.004307
NI4829   NI        0.620509    0.275463    0.677406     0.004307
NI4830   NI        0.666703    0.235670    0.684132     0.004307
NI4831   NI        0.656641    0.272459    0.705839     0.004307
NI4832   NI        0.693421    0.247995    0.719145     0.004307
NI4833   NI        0.699415    0.272457    0.686699     0.004307
CU4834   CU        0.730592    0.242535    0.683243     0.006663
NI4835   NI        0.731384    0.275190    0.716805     0.004307
NI4836   NI        0.764837    0.275712    0.683518     0.004307
NI4837   NI        0.110130    0.305718    0.687327     0.004307
NI4838   NI        0.107968    0.345004    0.714911     0.004307
NI4839   NI        0.143382    0.312823    0.719100     0.004307
NI4840   NI        0.140484    0.342082    0.685022     0.004307
NI4841   NI        0.173887    0.312010    0.689155     0.004307
NI4842   NI        0.175302    0.349571    0.717922     0.004307
NI4843   NI        0.220398    0.312088    0.703847     0.004307
NI4844   NI        0.206660    0.349563    0.684945     0.004307
NI4845   NI        0.254829    0.311284    0.674360     0.004307
NI4846   NI        0.243847    0.349579    0.719800     0.004307
CU4847   CU        0.293071    0.312014    0.709841     0.006663
NI4848   NI        0.286657    0.342512    0.677702     0.004307
NI4849   NI        0.323609    0.314121    0.676929     0.004307
NI4850   NI        0.322836    0.344083    0.711457     0.004307
NI4851   NI        0.359574    0.311536    0.706607     0.004307
NI4852   NI        0.352315    0.348653    0.678114     0.004307
CU4853   CU        0.387190    0.317596    0.673981     0.006663
NI4854   NI        0.387212    0.348723    0.708185     0.004307
NI4855   NI        0.425001    0.318141    0.705772     0.004307
CU4856   CU        0.420528    0.349414    0.676642     0.006663
NI4857   NI        0.455475    0.317539    0.675336     0.004307
NI4858   NI        0.456451    0.350334    0.706451     0.004307
NI4859   NI        0.487569    0.312339    0.725765     0.004307
CU4860   CU        0.490468    0.347637    0.678224     0.006663
NI4861   NI        0.522721    0.311291    0.677869     0.004307
CU4862   CU        0.522039    0.345116    0.708739     0.006663
CU4863   CU        0.554974    0.307357    0.711148     0.006663
CU4864   CU        0.554855    0.343925    0.681371     0.006663
NI4865   NI        0.587776    0.310535    0.679896     0.004307
NI4866   NI        0.587864    0.345527    0.709495     0.004307
NI4867   NI        0.631118    0.311022    0.723062     0.004307
NI4868   NI        0.622859    0.350887    0.679265     0.004307
CU4869   CU        0.661415    0.320084    0.687935     0.006663
CU4870   CU        0.665907    0.343083    0.724048     0.006663
CU4871   CU        0.699177    0.311307    0.719196     0.006663
NI4872   NI        0.703489    0.341283    0.686938     0.004307
NI4873   NI        0.734346    0.309221    0.686716     0.004307
CU4874   CU        0.733323    0.345147    0.719576     0.006663
NI4875   NI        0.766966    0.311767    0.715980     0.004307
CU4876   CU        0.765732    0.346491    0.686158     0.006663
NI4877   NI        0.798772    0.313012    0.685797     0.004307
NI4878   NI        0.798063    0.345110    0.717136     0.004307
NI4879   NI        0.076860    0.413890    0.686441     0.004307
NI4880   NI        0.110891    0.379464    0.686780     0.004307
CU4881   CU        0.109989    0.413825    0.717315     0.006663
CU4882   CU        0.141359    0.378842    0.721609     0.006663
NI4883   NI        0.142120    0.414410    0.688302     0.004307
NI4884   NI        0.175165    0.380615    0.689247     0.004307
CU4885   CU        0.175343    0.413783    0.718564     0.006663
NI4886   NI        0.208734    0.380284    0.719111     0.004307
NI4887   NI        0.205996    0.413318    0.688735     0.004307
NI4888   NI        0.240592    0.381137    0.688980     0.004307
NI4889   NI        0.243262    0.414407    0.718199     0.004307
NI4890   NI        0.275047    0.381687    0.721986     0.004307
NI4891   NI        0.288406    0.416175    0.679578     0.004307
NI4892   NI        0.317802    0.381922    0.678487     0.004307
NI4893   NI        0.311619    0.411850    0.722056     0.004307
NI4894   NI        0.353258    0.380306    0.708029     0.004307
NI4895   NI        0.354322    0.417541    0.677423     0.004307
CU4896   CU        0.388517    0.383043    0.675809     0.006663
NI4897   NI        0.388585    0.414960    0.706627     0.004307
NI4898   NI        0.420673    0.381400    0.705750     0.004307
NI4899   NI        0.423346    0.418075    0.676933     0.004307
CU4900   CU        0.457130    0.383140    0.677571     0.006663
NI4901   NI        0.457697    0.414679    0.707018     0.004307
NI4902   NI        0.491338    0.381286    0.708730     0.004307
CU4903   CU        0.488932    0.415258    0.677615     0.006663
NI4904   NI        0.522580    0.381160    0.679015     0.004307
CU4905   CU        0.523109    0.416544    0.709756     0.006663
NI4906   NI        0.558097    0.382593    0.711122     0.004307
CU4907   CU        0.554305    0.413692    0.679016     0.006663
NI4908   NI        0.589085    0.381881    0.680569     0.004307
NI4909   NI        0.597604    0.407385    0.719073     0.004307
NI4910   NI        0.636251    0.379734    0.717277     0.004307
CU4911   CU        0.620618    0.414533    0.680545     0.006663
NI4912   NI        0.655125    0.384525    0.679678     0.004307
NI4913   NI        0.665557    0.414987    0.724424     0.004307
CU4914   CU        0.700881    0.378885    0.719906     0.006663
NI4915   NI        0.694816    0.413540    0.675267     0.004307
NI4916   NI        0.734393    0.381529    0.690529     0.004307
NI4917   NI        0.732804    0.413979    0.719351     0.004307
CU4918   CU        0.765604    0.379474    0.719163     0.006663
NI4919   NI        0.766614    0.414139    0.688493     0.004307
NI4920   NI        0.797445    0.381751    0.686230     0.004307
NI4921   NI        0.797885    0.413162    0.718076     0.004307
NI4922   NI        0.830104    0.415057    0.686743     0.004307
NI4923   NI        0.074776    0.483892    0.687959     0.004307
NI4924   NI        0.107975    0.450461    0.689054     0.004307
NI4925   NI        0.108081    0.483694    0.719675     0.004307
NI4926   NI        0.143588    0.450887    0.718978     0.004307
NI4927   NI        0.140972    0.485969    0.690532     0.004307
NI4928   NI        0.175243    0.447694    0.687111     0.004307
NI4929   NI        0.174498    0.487108    0.718889     0.004307
NI4930   NI        0.208281    0.451444    0.719034     0.004307
NI4931   NI        0.215718    0.478886    0.682438     0.004307
NI4932   NI        0.252332    0.453090    0.687142     0.004307
NI4933   NI        0.239140    0.486451    0.719409     0.004307
CU4934   CU        0.278370    0.448713    0.723153     0.006663
NI4935   NI        0.288517    0.481911    0.683200     0.004307
CU4936   CU        0.319623    0.448607    0.679022     0.006663
NI4937   NI        0.322686    0.485440    0.711945     0.004307
NI4938   NI        0.355819    0.451499    0.706860     0.004307
NI4939   NI        0.351361    0.483023    0.677492     0.004307
NI4940   NI        0.386964    0.450343    0.677514     0.004307
NI4941   NI        0.384773    0.485580    0.726123     0.004307
NI4942   NI        0.417397    0.451468    0.729185     0.004307
NI4943   NI        0.413196    0.490428    0.685620     0.004307
CU4944   CU        0.458674    0.448399    0.675175     0.006663
NI4945   NI        0.451468    0.486732    0.723582     0.004307
NI4946   NI        0.489615    0.448585    0.708555     0.004307
NI4947   NI        0.489909    0.480742    0.675486     0.004307
CU4948   CU        0.521220    0.448235    0.677524     0.006663
NI4949   NI        0.522255    0.481422    0.706860     0.004307
NI4950   NI        0.552885    0.451087    0.712834     0.004307
CU4951   CU        0.552161    0.481925    0.675445     0.006663
NI4952   NI        0.587357    0.449713    0.678004     0.004307
NI4953   NI        0.583542    0.482554    0.707840     0.004307
NI4954   NI        0.617857    0.455343    0.710526     0.004307
NI4955   NI        0.621904    0.484320    0.677544     0.004307
NI4956   NI        0.656452    0.448203    0.675156     0.004307
NI4957   NI        0.665754    0.487874    0.721274     0.004307
CU4958   CU        0.698992    0.452751    0.720199     0.006663
CU4959   CU        0.700616    0.487647    0.690779     0.006663
CU4960   CU        0.733434    0.449163    0.691742     0.006663
NI4961   NI        0.733341    0.485817    0.721559     0.004307
NI4962   NI        0.767413    0.450609    0.719501     0.004307
NI4963   NI        0.767217    0.485317    0.690555     0.004307
NI4964   NI        0.800749    0.449187    0.690445     0.004307
NI4965   NI        0.802944    0.485736    0.720309     0.004307
CU4966   CU        0.830053    0.484297    0.685508     0.006663
NI4967   NI        0.109403    0.518311    0.689758     0.004307
NI4968   NI        0.110598    0.552655    0.718995     0.004307
NI4969   NI        0.140684    0.518546    0.720733     0.004307
NI4970   NI        0.141815    0.556079    0.683816     0.004307
NI4971   NI        0.173378    0.521567    0.689981     0.004307
NI4972   NI        0.173814    0.552346    0.720234     0.004307
NI4973   NI        0.207740    0.523214    0.722845     0.004307
NI4974   NI        0.207249    0.558231    0.691792     0.004307
NI4975   NI        0.254050    0.512357    0.683279     0.004307
CU4976   CU        0.242468    0.558105    0.724099     0.006663
NI4977   NI        0.287736    0.515110    0.713625     0.004307
NI4978   NI        0.286242    0.546867    0.679108     0.004307
CU4979   CU        0.320287    0.515449    0.679754     0.006663
NI4980   NI        0.310497    0.559333    0.722604     0.004307
NI4981   NI        0.349679    0.520399    0.724679     0.004307
NI4982   NI        0.351502    0.552670    0.684990     0.004307
NI4983   NI        0.385608    0.522306    0.676473     0.004307
NI4984   NI        0.381495    0.556014    0.722214     0.004307
CU4985   CU        0.416604    0.521386    0.725804     0.006663
CU4986   CU        0.414029    0.553260    0.691982     0.006663
NI4987   NI        0.447328    0.522363    0.691324     0.004307
NI4988   NI        0.450847    0.554891    0.722799     0.004307
NI4989   NI        0.483283    0.523490    0.717325     0.004307
NI4990   NI        0.486645    0.545990    0.675490     0.004307
NI4991   NI        0.519532    0.513102    0.675571     0.004307
CU4992   CU        0.525961    0.558500    0.720943     0.006663
NI4993   NI        0.551734    0.517736    0.708438     0.004307
NI4994   NI        0.561715    0.559852    0.687389     0.004307
NI4995   NI        0.585017    0.519712    0.677067     0.004307
NI4996   NI        0.594414    0.560170    0.723030     0.004307
NI4997   NI        0.632527    0.523196    0.721440     0.004307
NI4998   NI        0.621183    0.554359    0.671554     0.004307
NI4999   NI        0.652244    0.520137    0.673791     0.004307
NI5000   NI        0.666415    0.559664    0.720529     0.004307
CU5001   CU        0.699814    0.523475    0.720434     0.006663
NI5002   NI        0.701733    0.557798    0.689693     0.004307
CU5003   CU        0.732625    0.521062    0.691616     0.006663
NI5004   NI        0.733434    0.558257    0.717973     0.004307
NI5005   NI        0.766116    0.520931    0.719313     0.004307
NI5006   NI        0.764972    0.555724    0.687278     0.004307
NI5007   NI        0.798971    0.522424    0.687580     0.004307
NI5008   NI        0.796923    0.558346    0.718429     0.004307
NI5009   NI        0.110384    0.588175    0.686828     0.004307
CU5010   CU        0.141870    0.589491    0.716703     0.006663
NI5011   NI        0.143740    0.624547    0.684704     0.004307
CU5012   CU        0.174649    0.589710    0.688321     0.006663
CU5013   CU        0.175128    0.623801    0.717152     0.006663
NI5014   NI        0.207773    0.591638    0.720757     0.004307
NI5015   NI        0.207832    0.624417    0.686257     0.004307
NI5016   NI        0.239278    0.591153    0.688100     0.004307
NI5017   NI        0.242164    0.624563    0.719780     0.004307
NI5018   NI        0.277005    0.590522    0.722765     0.004307
NI5019   NI        0.275629    0.627571    0.688996     0.004307
NI5020   NI        0.321827    0.584176    0.681514     0.004307
NI5021   NI        0.310236    0.625688    0.720492     0.004307
NI5022   NI        0.347102    0.593253    0.718899     0.004307
CU5023   CU        0.353802    0.617239    0.679747     0.006663
CU5024   CU        0.382887    0.588511    0.693965     0.006663
NI5025   NI        0.380181    0.625129    0.722247     0.004307
NI5026   NI        0.417946    0.590683    0.721549     0.004307
NI5027   NI        0.418807    0.613649    0.678377     0.004307
NI5028   NI        0.457466    0.596796    0.690623     0.004307
NI5029   NI        0.458477    0.626693    0.721030     0.004307
CU5030   CU        0.489607    0.590567    0.722534     0.006663
CU5031   CU        0.492097    0.626795    0.692188     0.006663
NI5032   NI        0.526616    0.593477    0.694337     0.004307
NI5033   NI        0.523487    0.625936    0.724100     0.004307
CU5034   CU        0.559243    0.592124    0.723848     0.006663
NI5035   NI        0.561534    0.625922    0.691404     0.004307
NI5036   NI        0.593140    0.594315    0.690352     0.004307
CU5037   CU        0.594002    0.627387    0.720873     0.006663
NI5038   NI        0.630599    0.591855    0.721118     0.004307
CU5039   CU        0.631277    0.625722    0.687210     0.006663
NI5040   NI        0.665399    0.594236    0.688421     0.004307
CU5041   CU        0.662928    0.626016    0.717936     0.006663
NI5042   NI        0.697508    0.590380    0.719854     0.004307
CU5043   CU        0.697959    0.624380    0.686766     0.006663
CU5044   CU        0.731346    0.591491    0.687249     0.006663
NI5045   NI        0.728468    0.623783    0.717818     0.004307
NI5046   NI        0.765677    0.592082    0.715895     0.004307
CU5047   CU        0.764958    0.625787    0.685263     0.006663
NI5048   NI        0.794786    0.589790    0.683572     0.004307
NI5049   NI        0.175131    0.655532    0.684116     0.004307
NI5050   NI        0.207622    0.657979    0.716816     0.004307
NI5051   NI        0.209579    0.693611    0.686082     0.004307
NI5052   NI        0.240651    0.658908    0.687115     0.004307
NI5053   NI        0.242566    0.694662    0.715665     0.004307
NI5054   NI        0.276205    0.660021    0.720626     0.004307
NI5055   NI        0.277620    0.695581    0.687305     0.004307
NI5056   NI        0.310878    0.660860    0.690608     0.004307
NI5057   NI        0.311670    0.694216    0.719972     0.004307
NI5058   NI        0.343990    0.660735    0.721561     0.004307
NI5059   NI        0.344723    0.695577    0.690812     0.004307
NI5060   NI        0.386291    0.648280    0.679547     0.004307
NI5061   NI        0.377023    0.694284    0.721291     0.004307
NI5062   NI        0.407008    0.662005    0.716846     0.004307
NI5063   NI        0.420095    0.677647    0.678537     0.004307
NI5064   NI        0.461703    0.662531    0.688537     0.004307
NI5065   NI        0.461801    0.695204    0.719452     0.004307
CU5066   CU        0.489570    0.661369    0.722147     0.006663
CU5067   CU        0.495026    0.696116    0.689570     0.006663
NI5068   NI        0.525914    0.662691    0.690475     0.004307
CU5069   CU        0.525811    0.694807    0.721226     0.006663
NI5070   NI        0.559460    0.662977    0.722539     0.004307
NI5071   NI        0.558192    0.694789    0.689591     0.004307
NI5072   NI        0.596195    0.660502    0.686475     0.004307
NI5073   NI        0.593968    0.695133    0.717903     0.004307
NI5074   NI        0.627548    0.660910    0.716786     0.004307
NI5075   NI        0.624894    0.694915    0.687047     0.004307
NI5076   NI        0.663396    0.658664    0.688502     0.004307
NI5077   NI        0.662611    0.694776    0.717000     0.004307
CU5078   CU        0.697122    0.658299    0.717985     0.006663
NI5079   NI        0.697513    0.692007    0.684591     0.004307
NI5080   NI        0.730732    0.658339    0.684004     0.004307
NI5081   NI        0.242453    0.727128    0.684767     0.004307
NI5082   NI        0.278403    0.726523    0.716950     0.004307
NI5083   NI        0.278910    0.762725    0.687145     0.004307
NI5084   NI        0.312549    0.729121    0.688938     0.004307
CU5085   CU        0.311906    0.761495    0.717570     0.006663
NI5086   NI        0.344011    0.727735    0.722227     0.004307
NI5087   NI        0.357066    0.744349    0.683784     0.004307
NI5088   NI        0.388537    0.708285    0.681816     0.004307
NI5089   NI        0.379827    0.766590    0.719242     0.004307
NI5090   NI        0.419611    0.704301    0.710975     0.004307
NI5091   NI        0.412276    0.766858    0.687789     0.004307
NI5092   NI        0.450825    0.708319    0.679934     0.004307
NI5093   NI        0.447832    0.737927    0.710162     0.004307
NI5094   NI        0.492233    0.728140    0.720315     0.004307
NI5095   NI        0.480718    0.740789    0.681313     0.004307
NI5096   NI        0.526304    0.729465    0.690726     0.004307
NI5097   NI        0.528499    0.761132    0.720823     0.004307
CU5098   CU        0.559944    0.727122    0.718668     0.006663
NI5099   NI        0.557223    0.761034    0.687836     0.004307
NI5100   NI        0.593865    0.726625    0.686290     0.004307
NI5101   NI        0.593188    0.760721    0.716426     0.004307
CU5102   CU        0.627192    0.726385    0.717350     0.006663
NI5103   NI        0.626172    0.759169    0.687011     0.004307
NI5104   NI        0.658541    0.727735    0.682511     0.004307
CU5105   CU        0.310093    0.797348    0.685178     0.006663
NI5106   NI        0.342822    0.793742    0.718376     0.004307
CU5107   CU        0.377288    0.796877    0.687159     0.006663
NI5108   NI        0.410219    0.799333    0.717232     0.004307
NI5109   NI        0.410862    0.830845    0.685538     0.004307
CU5110   CU        0.461581    0.779091    0.691612     0.006663
NI5111   NI        0.493482    0.797331    0.718495     0.004307
NI5112   NI        0.486984    0.828043    0.684519     0.004307
NI5113   NI        0.511318    0.773362    0.685255     0.004307
NI5114   NI        0.558966    0.795041    0.716211     0.004307
NI5115   NI        0.593489    0.791625    0.684309     0.004307
NI5116   NI        0.345259    0.139873    0.746182     0.004307
CU5117   CU        0.417168    0.139213    0.750254     0.006663
NI5118   NI        0.523671    0.135982    0.777996     0.004307
NI5119   NI        0.559652    0.136957    0.749685     0.004307
CU5120   CU        0.280551    0.207140    0.746415     0.006663
NI5121   NI        0.314146    0.172055    0.746946     0.004307
NI5122   NI        0.312683    0.207714    0.776251     0.004307
NI5123   NI        0.346949    0.204827    0.749590     0.004307
NI5124   NI        0.384347    0.171479    0.749403     0.004307
NI5125   NI        0.381621    0.207988    0.781417     0.004307
CU5126   CU        0.416972    0.171824    0.779795     0.006663
NI5127   NI        0.417239    0.205061    0.748692     0.004307
CU5128   CU        0.450506    0.171715    0.749452     0.006663
CU5129   CU        0.449522    0.206548    0.780923     0.006663
NI5130   NI        0.484986    0.205698    0.810164     0.004307
NI5131   NI        0.488538    0.204009    0.748331     0.004307
CU5132   CU        0.522872    0.171112    0.747846     0.006663
CU5133   CU        0.523415    0.203827    0.779888     0.006663
NI5134   NI        0.558236    0.204412    0.751414     0.004307
NI5135   NI        0.594700    0.170431    0.747898     0.004307
NI5136   NI        0.593633    0.209117    0.779340     0.004307
NI5137   NI        0.628661    0.204012    0.746098     0.004307
CU5138   CU        0.210739    0.277761    0.750324     0.006663
NI5139   NI        0.244836    0.241848    0.748270     0.004307
NI5140   NI        0.244860    0.275375    0.779826     0.004307
NI5141   NI        0.278504    0.239985    0.776127     0.004307
CU5142   CU        0.275910    0.273571    0.749496     0.006663
CU5143   CU        0.315014    0.240238    0.749146     0.006663
NI5144   NI        0.337449    0.278805    0.769287     0.004307
NI5145   NI        0.349558    0.239505    0.780847     0.004307
NI5146   NI        0.363336    0.276096    0.736654     0.004307
NI5147   NI        0.382193    0.238477    0.750593     0.004307
NI5148   NI        0.380657    0.275445    0.780878     0.004307
NI5149   NI        0.414446    0.241995    0.779797     0.004307
NI5150   NI        0.408540    0.271722    0.745790     0.004307
NI5151   NI        0.450341    0.200544    0.719911     0.004307
NI5152   NI        0.454271    0.278867    0.783538     0.004307
NI5153   NI        0.491390    0.239937    0.782593     0.004307
NI5154   NI        0.491046    0.274093    0.752374     0.004307
CU5155   CU        0.523965    0.238209    0.750556     0.006663
NI5156   NI        0.524460    0.277898    0.781528     0.004307
CU5157   CU        0.560847    0.241234    0.778204     0.006663
NI5158   NI        0.566297    0.272774    0.748194     0.004307
NI5159   NI        0.597028    0.239464    0.746027     0.004307
NI5160   NI        0.594089    0.274871    0.780705     0.004307
NI5161   NI        0.628060    0.240672    0.776807     0.004307
CU5162   CU        0.630061    0.279654    0.753533     0.006663
NI5163   NI        0.664066    0.247991    0.752876     0.004307
NI5164   NI        0.662277    0.277752    0.783014     0.004307
NI5165   NI        0.696194    0.280295    0.751690     0.004307
NI5166   NI        0.143284    0.343893    0.747419     0.004307
NI5167   NI        0.177990    0.311292    0.746689     0.004307
NI5168   NI        0.210429    0.311677    0.777823     0.004307
NI5169   NI        0.206806    0.346685    0.751531     0.004307
NI5170   NI        0.245561    0.311142    0.750368     0.004307
NI5171   NI        0.241058    0.346827    0.781318     0.004307
NI5172   NI        0.274883    0.312416    0.782146     0.004307
NI5173   NI        0.277075    0.347795    0.753346     0.004307
CU5174   CU        0.328091    0.309899    0.736582     0.006663
CU5175   CU        0.310341    0.346784    0.782563     0.006663
NI5176   NI        0.347381    0.313926    0.790988     0.004307
NI5177   NI        0.356237    0.344625    0.737961     0.004307
NI5178   NI        0.393489    0.317082    0.739158     0.004307
NI5179   NI        0.384277    0.348317    0.788423     0.004307
NI5180   NI        0.418967    0.313686    0.786310     0.004307
CU5181   CU        0.418446    0.347983    0.757266     0.006663
NI5182   NI        0.453047    0.314518    0.757101     0.004307
NI5183   NI        0.453904    0.347120    0.787170     0.004307
NI5184   NI        0.488311    0.309859    0.784899     0.004307
NI5185   NI        0.488759    0.346889    0.758318     0.004307
CU5186   CU        0.519819    0.313213    0.755588     0.006663
NI5187   NI        0.522954    0.346624    0.783975     0.004307
NI5188   NI        0.558005    0.308436    0.780902     0.004307
CU5189   CU        0.557460    0.346759    0.754700     0.006663
CU5190   CU        0.593960    0.310757    0.755452     0.006663
NI5191   NI        0.596824    0.345272    0.782614     0.004307
CU5192   CU        0.628843    0.311892    0.782938     0.006663
NI5193   NI        0.631909    0.344254    0.752304     0.004307
NI5194   NI        0.664275    0.311429    0.753551     0.004307
CU5195   CU        0.664332    0.345771    0.783667     0.006663
NI5196   NI        0.696003    0.313160    0.781750     0.004307
NI5197   NI        0.698798    0.343326    0.750433     0.004307
NI5198   NI        0.730263    0.310534    0.749405     0.004307
CU5199   CU        0.766508    0.344074    0.748541     0.006663
CU5200   CU        0.140804    0.418103    0.748869     0.006663
NI5201   NI        0.175201    0.381836    0.749557     0.004307
NI5202   NI        0.173879    0.415818    0.777568     0.004307
NI5203   NI        0.208269    0.381150    0.778612     0.004307
NI5204   NI        0.209252    0.414188    0.747441     0.004307
CU5205   CU        0.242839    0.381617    0.751422     0.006663
NI5206   NI        0.244031    0.415701    0.783234     0.004307
NI5207   NI        0.275785    0.379837    0.783180     0.004307
NI5208   NI        0.276555    0.413474    0.753942     0.004307
NI5209   NI        0.310102    0.382155    0.752901     0.004307
NI5210   NI        0.313789    0.416137    0.782213     0.004307
NI5211   NI        0.350420    0.382675    0.785632     0.004307
NI5212   NI        0.347220    0.416803    0.756241     0.004307
NI5213   NI        0.383468    0.379860    0.755423     0.004307
CU5214   CU        0.382071    0.418240    0.783977     0.006663
NI5215   NI        0.417637    0.381325    0.786078     0.004307
NI5216   NI        0.421293    0.416296    0.756650     0.004307
CU5217   CU        0.453614    0.380167    0.757432     0.006663
NI5218   NI        0.454898    0.414631    0.786418     0.004307
CU5219   CU        0.487321    0.381798    0.785786     0.006663
NI5220   NI        0.487528    0.414212    0.758826     0.004307
CU5221   CU        0.523533    0.381388    0.757857     0.006663
NI5222   NI        0.522445    0.413735    0.786663     0.004307
NI5223   NI        0.558609    0.380999    0.786519     0.004307
NI5224   NI        0.555993    0.413314    0.746638     0.004307
NI5225   NI        0.588451    0.381451    0.756530     0.004307
NI5226   NI        0.598886    0.413486    0.786562     0.004307
CU5227   CU        0.628227    0.376276    0.783179     0.006663
NI5228   NI        0.626699    0.405504    0.751423     0.004307
CU5229   CU        0.666972    0.377773    0.750918     0.006663
NI5230   NI        0.648391    0.427735    0.781634     0.004307
NI5231   NI        0.698351    0.380395    0.780801     0.004307
NI5232   NI        0.701985    0.411980    0.749517     0.004307
NI5233   NI        0.732731    0.379979    0.749905     0.004307
NI5234   NI        0.732190    0.417047    0.780415     0.004307
NI5235   NI        0.764704    0.413580    0.748423     0.004307
NI5236   NI        0.142172    0.485394    0.750223     0.004307
NI5237   NI        0.175800    0.448300    0.746940     0.004307
NI5238   NI        0.173728    0.482427    0.780324     0.004307
NI5239   NI        0.210589    0.448242    0.778427     0.004307
CU5240   CU        0.207733    0.484750    0.750025     0.006663
NI5241   NI        0.243841    0.452270    0.747770     0.004307
NI5242   NI        0.244079    0.484965    0.779870     0.004307
NI5243   NI        0.279254    0.449964    0.781130     0.004307
NI5244   NI        0.276787    0.484501    0.752188     0.004307
NI5245   NI        0.312473    0.450240    0.752251     0.004307
NI5246   NI        0.313450    0.486063    0.781621     0.004307
CU5247   CU        0.350762    0.452310    0.783703     0.006663
NI5248   NI        0.351045    0.485817    0.754310     0.004307
NI5249   NI        0.385765    0.452817    0.755896     0.004307
NI5250   NI        0.383061    0.486074    0.784646     0.004307
NI5251   NI        0.420706    0.449735    0.783952     0.004307
NI5252   NI        0.419262    0.485844    0.756310     0.004307
NI5253   NI        0.455236    0.450751    0.756584     0.004307
NI5254   NI        0.452880    0.486621    0.783832     0.004307
NI5255   NI        0.490634    0.452291    0.783601     0.004307
NI5256   NI        0.488013    0.489652    0.754816     0.004307
NI5257   NI        0.518995    0.449522    0.741104     0.004307
CU5258   CU        0.525892    0.489141    0.782304     0.006663
NI5259   NI        0.547050    0.449701    0.772570     0.004307
NI5260   NI        0.549133    0.485941    0.743332     0.004307
NI5261   NI        0.584805    0.451958    0.745893     0.004307
CU5262   CU        0.574421    0.484297    0.776921     0.006663
NI5263   NI        0.612263    0.458232    0.779179     0.004307
NI5264   NI        0.631663    0.489791    0.752849     0.004307
NI5265   NI        0.666416    0.452189    0.749802     0.004307
NI5266   NI        0.657578    0.471755    0.785037     0.004307
NI5267   NI        0.696980    0.449320    0.781598     0.004307
NI5268   NI        0.699881    0.487064    0.749841     0.004307
CU5269   CU        0.732984    0.450913    0.750043     0.006663
NI5270   NI        0.734363    0.486050    0.779138     0.004307
NI5271   NI        0.766358    0.484139    0.750036     0.004307
NI5272   NI        0.141499    0.555886    0.749681     0.004307
NI5273   NI        0.175162    0.518304    0.749586     0.004307
NI5274   NI        0.210517    0.517595    0.781787     0.004307
NI5275   NI        0.208728    0.556539    0.752168     0.004307
NI5276   NI        0.241679    0.519939    0.751887     0.004307
NI5277   NI        0.241167    0.554265    0.782657     0.004307
NI5278   NI        0.275981    0.521986    0.781594     0.004307
NI5279   NI        0.277422    0.557127    0.753712     0.004307
CU5280   CU        0.314078    0.523749    0.752536     0.006663
NI5281   NI        0.312792    0.556763    0.781077     0.004307
CU5282   CU        0.346184    0.518310    0.782640     0.006663
NI5283   NI        0.345476    0.555154    0.752913     0.004307
NI5284   NI        0.381425    0.519445    0.753919     0.004307
CU5285   CU        0.382542    0.553610    0.781292     0.006663
NI5286   NI        0.420008    0.521793    0.782945     0.004307
NI5287   NI        0.415781    0.554830    0.752576     0.004307
NI5288   NI        0.455303    0.521438    0.751930     0.004307
NI5289   NI        0.453237    0.556509    0.780282     0.004307
NI5290   NI        0.488711    0.522682    0.782891     0.004307
NI5291   NI        0.486793    0.554939    0.750527     0.004307
CU5292   CU        0.520951    0.523364    0.751885     0.006663
NI5293   NI        0.522159    0.558899    0.778580     0.004307
NI5294   NI        0.552297    0.524300    0.783125     0.004307
CU5295   CU        0.560692    0.557939    0.751916     0.006663
NI5296   NI        0.596458    0.524711    0.751818     0.004307
NI5297   NI        0.593415    0.558403    0.781193     0.004307
NI5298   NI        0.630907    0.524300    0.779757     0.004307
CU5299   CU        0.630894    0.558103    0.748851     0.006663
NI5300   NI        0.665633    0.522288    0.751601     0.004307
CU5301   CU        0.664056    0.556821    0.781051     0.006663
NI5302   NI        0.699037    0.520792    0.780902     0.004307
NI5303   NI        0.697306    0.555541    0.753634     0.004307
NI5304   NI        0.733338    0.523185    0.749867     0.004307
NI5305   NI        0.763376    0.557944    0.749515     0.004307
NI5306   NI        0.171914    0.588990    0.749753     0.004307
NI5307   NI        0.207070    0.592350    0.777467     0.004307
NI5308   NI        0.208632    0.624811    0.749573     0.004307
NI5309   NI        0.244100    0.590880    0.753113     0.004307
CU5310   CU        0.240846    0.630212    0.778155     0.006663
CU5311   CU        0.278176    0.593890    0.781104     0.006663
NI5312   NI        0.276169    0.625663    0.749746     0.004307
NI5313   NI        0.311506    0.592651    0.752812     0.004307
CU5314   CU        0.312597    0.629092    0.780484     0.006663
CU5315   CU        0.346817    0.590688    0.781317     0.006663
NI5316   NI        0.346007    0.624210    0.751924     0.004307
NI5317   NI        0.382044    0.590869    0.751281     0.004307
NI5318   NI        0.381698    0.626604    0.780483     0.004307
NI5319   NI        0.418016    0.593706    0.780920     0.004307
NI5320   NI        0.417905    0.626553    0.750325     0.004307
NI5321   NI        0.450786    0.592116    0.751628     0.004307
NI5322   NI        0.452747    0.627348    0.778462     0.004307
NI5323   NI        0.487185    0.589703    0.779400     0.004307
CU5324   CU        0.491427    0.627150    0.752545     0.006663
NI5325   NI        0.524313    0.593111    0.751840     0.004307
CU5326   CU        0.523282    0.628171    0.782148     0.006663
NI5327   NI        0.560653    0.590020    0.783235     0.004307
CU5328   CU        0.558429    0.627950    0.751012     0.006663
CU5329   CU        0.595906    0.594009    0.750216     0.006663
NI5330   NI        0.597278    0.625861    0.782306     0.004307
NI5331   NI        0.628782    0.591722    0.779553     0.004307
CU5332   CU        0.627024    0.625002    0.751035     0.006663
NI5333   NI        0.663084    0.593900    0.749338     0.004307
NI5334   NI        0.662923    0.626725    0.777917     0.004307
NI5335   NI        0.695163    0.591999    0.778671     0.004307
CU5336   CU        0.697387    0.625008    0.746927     0.006663
NI5337   NI        0.728624    0.590950    0.748989     0.004307
NI5338   NI        0.242186    0.660425    0.747239     0.004307
NI5339   NI        0.273444    0.661783    0.781184     0.004307
NI5340   NI        0.275982    0.693837    0.748851     0.004307
NI5341   NI        0.309555    0.660384    0.748697     0.004307
CU5342   CU        0.309949    0.692028    0.780326     0.006663
NI5343   NI        0.347238    0.658957    0.779842     0.004307
CU5344   CU        0.346601    0.694729    0.752291     0.006663
CU5345   CU        0.380569    0.659798    0.751264     0.006663
NI5346   NI        0.382826    0.694133    0.779959     0.004307
NI5347   NI        0.416225    0.658257    0.781714     0.004307
NI5348   NI        0.417783    0.690850    0.752283     0.004307
NI5349   NI        0.454766    0.662013    0.749376     0.004307
NI5350   NI        0.451311    0.693835    0.781471     0.004307
NI5351   NI        0.486923    0.662584    0.780987     0.004307
CU5352   CU        0.491241    0.695945    0.751154     0.006663
CU5353   CU        0.525431    0.661603    0.750896     0.006663
NI5354   NI        0.525092    0.691985    0.779894     0.004307
NI5355   NI        0.559643    0.661582    0.780909     0.004307
NI5356   NI        0.559282    0.695255    0.749937     0.004307
NI5357   NI        0.594153    0.660148    0.750848     0.004307
NI5358   NI        0.594510    0.694508    0.777483     0.004307
NI5359   NI        0.630503    0.660117    0.777328     0.004307
NI5360   NI        0.628883    0.692453    0.746982     0.004307
NI5361   NI        0.664434    0.660794    0.750009     0.004307
NI5362   NI        0.311556    0.725697    0.748830     0.004307
CU5363   CU        0.343116    0.765473    0.749066     0.006663
NI5364   NI        0.378878    0.728513    0.751196     0.004307
NI5365   NI        0.419629    0.728539    0.776618     0.004307
NI5366   NI        0.407962    0.765656    0.750531     0.004307
NI5367   NI        0.456693    0.727275    0.751302     0.004307
NI5368   NI        0.493812    0.729181    0.780228     0.004307
NI5369   NI        0.490954    0.758434    0.749465     0.004307
NI5370   NI        0.527582    0.731817    0.751222     0.004307
NI5371   NI        0.560494    0.760790    0.747551     0.004307
NI5372   NI        0.593542    0.725111    0.748026     0.004307
NI5373   NI        0.346480    0.272688    0.810504     0.004307
NI5374   NI        0.382960    0.239196    0.811305     0.004307
CU5375   CU        0.415133    0.275857    0.810713     0.006663
CU5376   CU        0.453858    0.242870    0.807440     0.006663
NI5377   NI        0.487942    0.273923    0.811212     0.004307
NI5378   NI        0.524058    0.242657    0.811462     0.004307
NI5379   NI        0.560784    0.274918    0.809123     0.004307
NI5380   NI        0.274136    0.343560    0.811466     0.004307
NI5381   NI        0.307472    0.312173    0.812066     0.004307
NI5382   NI        0.347873    0.348559    0.814771     0.004307
NI5383   NI        0.385735    0.311311    0.814996     0.004307
NI5384   NI        0.383336    0.349203    0.842278     0.004307
NI5385   NI        0.418301    0.317553    0.843454     0.004307
NI5386   NI        0.420101    0.347578    0.814615     0.004307
CU5387   CU        0.453454    0.313196    0.814843     0.006663
NI5388   NI        0.417434    0.347083    0.876221     0.004307
NI5389   NI        0.489966    0.309068    0.839186     0.004307
NI5390   NI        0.489026    0.345553    0.812955     0.004307
NI5391   NI        0.524792    0.310723    0.811518     0.004307
NI5392   NI        0.524000    0.346687    0.840211     0.004307
CU5393   CU        0.558092    0.344420    0.813751     0.006663
NI5394   NI        0.592065    0.310067    0.809186     0.004307
CU5395   CU        0.630402    0.345561    0.811731     0.006663
NI5396   NI        0.241790    0.379282    0.812286     0.004307
NI5397   NI        0.279129    0.417123    0.812891     0.004307
CU5398   CU        0.312650    0.381899    0.812302     0.006663
NI5399   NI        0.312210    0.416006    0.841542     0.004307
NI5400   NI        0.346447    0.380379    0.841301     0.004307
NI5401   NI        0.345691    0.415894    0.813480     0.004307
NI5402   NI        0.384370    0.384508    0.815954     0.004307
CU5403   CU        0.381053    0.417902    0.843347     0.006663
NI5404   NI        0.417393    0.382293    0.844042     0.004307
CU5405   CU        0.418273    0.416241    0.815260     0.006663
NI5406   NI        0.452490    0.383214    0.816131     0.004307
NI5407   NI        0.453829    0.416977    0.841322     0.004307
NI5408   NI        0.489434    0.381506    0.843064     0.004307
NI5409   NI        0.489943    0.417050    0.813857     0.004307
NI5410   NI        0.523277    0.382447    0.816637     0.004307
NI5411   NI        0.525766    0.415880    0.844420     0.004307
CU5412   CU        0.555454    0.380587    0.844805     0.006663
NI5413   NI        0.556861    0.412321    0.815805     0.004307
NI5414   NI        0.594062    0.375213    0.813330     0.004307
NI5415   NI        0.588291    0.416343    0.842850     0.004307
NI5416   NI        0.618524    0.435625    0.817163     0.004307
NI5417   NI        0.664725    0.377099    0.810911     0.004307
NI5418   NI        0.241857    0.452003    0.808139     0.004307
NI5419   NI        0.277929    0.484731    0.809475     0.004307
CU5420   CU        0.315346    0.450178    0.812012     0.006663
NI5421   NI        0.316545    0.484035    0.841066     0.004307
NI5422   NI        0.346661    0.448929    0.842462     0.004307
NI5423   NI        0.347699    0.485079    0.812555     0.004307
NI5424   NI        0.381880    0.449702    0.814618     0.004307
CU5425   CU        0.385642    0.487613    0.838048     0.006663
NI5426   NI        0.419502    0.450893    0.841636     0.004307
NI5427   NI        0.418411    0.486967    0.812392     0.004307
CU5428   CU        0.454398    0.450829    0.813085     0.006663
NI5429   NI        0.454158    0.486774    0.840405     0.004307
CU5430   CU        0.488088    0.452602    0.841795     0.006663
CU5431   CU        0.490100    0.486452    0.811770     0.006663
NI5432   NI        0.524841    0.454188    0.811939     0.004307
CU5433   CU        0.521231    0.490102    0.841322     0.006663
NI5434   NI        0.556075    0.451281    0.841291     0.004307
NI5435   NI        0.556298    0.489493    0.814935     0.004307
CU5436   CU        0.575726    0.450570    0.804272     0.006663
CU5437   CU        0.587725    0.492916    0.849259     0.006663
CU5438   CU        0.601266    0.484383    0.810928     0.006663
NI5439   NI        0.662807    0.446556    0.820147     0.004307
NI5440   NI        0.246251    0.517917    0.811991     0.004307
CU5441   CU        0.313177    0.553628    0.842742     0.006663
NI5442   NI        0.312801    0.518490    0.813403     0.004307
NI5443   NI        0.346721    0.521186    0.840180     0.004307
CU5444   CU        0.347540    0.555805    0.811349     0.006663
NI5445   NI        0.383302    0.522412    0.811742     0.004307
NI5446   NI        0.384609    0.555878    0.841230     0.004307
NI5447   NI        0.418717    0.523388    0.838189     0.004307
NI5448   NI        0.419236    0.557246    0.810538     0.004307
NI5449   NI        0.454630    0.521747    0.812102     0.004307
NI5450   NI        0.452305    0.557452    0.839507     0.004307
NI5451   NI        0.487932    0.523533    0.840711     0.004307
NI5452   NI        0.487374    0.557138    0.811528     0.004307
NI5453   NI        0.520786    0.522917    0.812960     0.004307
NI5454   NI        0.522026    0.559497    0.839459     0.004307
NI5455   NI        0.554227    0.524677    0.842971     0.004307
NI5456   NI        0.556344    0.556449    0.809952     0.004307
CU5457   CU        0.592316    0.526900    0.811559     0.006663
CU5458   CU        0.628170    0.556948    0.809057     0.006663
NI5459   NI        0.664366    0.524095    0.807351     0.004307
NI5460   NI        0.283113    0.588086    0.854308     0.004307
NI5461   NI        0.346987    0.626920    0.809217     0.004307
CU5462   CU        0.381513    0.589491    0.809892     0.006663
NI5463   NI        0.419441    0.588501    0.839289     0.004307
CU5464   CU        0.418449    0.624759    0.810243     0.006663
NI5465   NI        0.451705    0.592248    0.808084     0.004307
NI5466   NI        0.489429    0.593933    0.838347     0.004307
NI5467   NI        0.486552    0.628578    0.808230     0.004307
NI5468   NI        0.525493    0.590550    0.808922     0.004307
NI5469   NI        0.559993    0.628592    0.809657     0.004307
NI5470   NI        0.593356    0.590258    0.810786     0.004307
NI5471   NI        0.380074    0.659198    0.811287     0.004307
NI5472   NI        0.453155    0.659096    0.809603     0.004307
NI5473   NI        0.525400    0.660243    0.809167     0.004307
