data_00001
_audit_creation_method   'DISCUS'

_data_chemical_name_common 'Au.cell: Pearson 85'

_cell_length_a             57.1046
_cell_length_b             53.0257
_cell_length_c             53.0257
_cell_angle_alpha     90.0000
_cell_angle_beta      90.0000
_cell_angle_gamma     90.0000

_symmetry_space_group_name_H-M   'P1              '

loop_
_atom_site_label
_atom_site_symbol
_atom_site_fract_x
_atom_site_fract_y
_atom_site_fract_z
_atom_site_u_iso_or_equiv
AU1   AU        0.357614    0.267178    0.039100     0.007504
AU2   AU        0.429241    0.266292    0.039674     0.007504
PT3   PT        0.499837    0.265326    0.040002     0.004505
AU4   AU        0.286522    0.345534    0.040369     0.007504
AU5   AU        0.320276    0.304312    0.038931     0.007504
AU6   AU        0.357713    0.342055    0.038528     0.007504
PT7   PT        0.392324    0.303915    0.040192     0.004505
PT8   PT        0.429489    0.343010    0.038141     0.004505
AU9   AU        0.462982    0.303465    0.040035     0.007504
PT10   PT        0.501167    0.342240    0.039760     0.004505
PT11   PT        0.536515    0.304045    0.040351     0.004505
PT12   PT        0.574368    0.342933    0.039339     0.004505
PT13   PT        0.248646    0.381818    0.037971     0.004505
AU14   AU        0.283937    0.418362    0.039298     0.007504
PT15   PT        0.321331    0.382837    0.038523     0.004505
PT16   PT        0.360183    0.420327    0.037437     0.004505
AU17   AU        0.393315    0.381549    0.038399     0.007504
PT18   PT        0.395064    0.419815    0.002168     0.004505
PT19   PT        0.430548    0.384618    0.000769     0.004505
PT20   PT        0.429309    0.419918    0.039038     0.004505
AU21   AU        0.464035    0.381639    0.038401     0.007504
AU22   AU        0.465568    0.419789    0.001663     0.007504
AU23   AU        0.500517    0.419567    0.038860     0.007504
PT24   PT        0.537146    0.381375    0.039171     0.004505
PT25   PT        0.575061    0.418983    0.038321     0.004505
PT26   PT        0.608900    0.382250    0.040239     0.004505
PT27   PT        0.248528    0.458501    0.040248     0.004505
PT28   PT        0.284228    0.498372    0.039972     0.004505
PT29   PT        0.322617    0.458169    0.037240     0.004505
PT30   PT        0.358783    0.459366    0.003440     0.004505
PT31   PT        0.357589    0.499147    0.038576     0.004505
PT32   PT        0.393077    0.459345    0.038576     0.004505
PT33   PT        0.393100    0.496895    0.002884     0.004505
PT34   PT        0.428310    0.458072    0.003608     0.004505
PT35   PT        0.429194    0.496433    0.039864     0.004505
AU36   AU        0.465383    0.459107    0.037873     0.007504
PT37   PT        0.464307    0.496026    0.001931     0.004505
PT38   PT        0.500402    0.460114    0.003854     0.004505
PT39   PT        0.500268    0.497439    0.039113     0.004505
AU40   AU        0.535538    0.459518    0.039188     0.007504
PT41   PT        0.573188    0.498644    0.039650     0.004505
AU42   AU        0.608022    0.460303    0.038543     0.007504
AU43   AU        0.251942    0.538209    0.036367     0.007504
PT44   PT        0.285539    0.574537    0.038435     0.004505
PT45   PT        0.320651    0.537743    0.038865     0.004505
PT46   PT        0.357887    0.575112    0.039992     0.004505
AU47   AU        0.392971    0.534322    0.037575     0.007504
PT48   PT        0.428372    0.531893    0.003475     0.004505
PT49   PT        0.428123    0.574092    0.040075     0.004505
AU50   AU        0.464436    0.534012    0.038734     0.007504
PT51   PT        0.502282    0.574147    0.039442     0.004505
AU52   AU        0.538611    0.534873    0.039733     0.007504
PT53   PT        0.571462    0.574005    0.038642     0.004505
PT54   PT        0.606873    0.535837    0.039336     0.004505
PT55   PT        0.321177    0.611822    0.038471     0.004505
AU56   AU        0.357626    0.650132    0.038606     0.007504
PT57   PT        0.391493    0.613351    0.039771     0.004505
AU58   AU        0.430161    0.688996    0.025426     0.007504
PT59   PT        0.465768    0.611962    0.039468     0.004505
PT60   PT        0.501643    0.649463    0.039961     0.004505
PT61   PT        0.536622    0.612689    0.040717     0.004505
PT62   PT        0.286273    0.192990    0.115674     0.004505
AU63   AU        0.358378    0.189767    0.114312     0.007504
AU64   AU        0.392256    0.152500    0.113096     0.007504
AU65   AU        0.394005    0.192128    0.075973     0.007504
AU66   AU        0.430057    0.190181    0.113018     0.007504
PT67   PT        0.462474    0.151527    0.113636     0.004505
PT68   PT        0.466090    0.188569    0.075042     0.004505
AU69   AU        0.498865    0.190581    0.113837     0.007504
PT70   PT        0.571783    0.191378    0.116492     0.004505
PT71   PT        0.215241    0.267901    0.115263     0.004505
AU72   AU        0.250249    0.229752    0.113961     0.007504
PT73   PT        0.249681    0.268635    0.077122     0.004505
AU74   AU        0.285973    0.268807    0.113170     0.007504
PT75   PT        0.322570    0.228466    0.112406     0.004505
PT76   PT        0.321289    0.267194    0.076034     0.004505
AU77   AU        0.357526    0.231080    0.076558     0.007504
AU78   AU        0.357402    0.267996    0.113478     0.007504
PT79   PT        0.394021    0.227590    0.113389     0.004505
PT80   PT        0.392377    0.266750    0.076819     0.004505
AU81   AU        0.429347    0.229184    0.076395     0.007504
AU82   AU        0.428623    0.265980    0.112113     0.007504
AU83   AU        0.463654    0.228163    0.113715     0.007504
PT84   PT        0.465586    0.265555    0.076752     0.004505
PT85   PT        0.498527    0.228651    0.077003     0.004505
PT86   PT        0.499268    0.265824    0.113716     0.004505
AU87   AU        0.535680    0.228213    0.114226     0.007504
PT88   PT        0.536118    0.265497    0.075947     0.004505
PT89   PT        0.572025    0.264400    0.114321     0.004505
PT90   PT        0.607111    0.228961    0.114767     0.004505
PT91   PT        0.607411    0.267902    0.077285     0.004505
PT92   PT        0.641626    0.269029    0.115612     0.004505
AU93   AU        0.180720    0.306788    0.115691     0.007504
PT94   PT        0.214366    0.344909    0.113822     0.004505
PT95   PT        0.249366    0.304486    0.114089     0.004505
AU96   AU        0.251702    0.344407    0.076269     0.007504
AU97   AU        0.283938    0.304795    0.076189     0.007504
PT98   PT        0.287076    0.343366    0.113050     0.004505
PT99   PT        0.322034    0.304871    0.111625     0.004505
PT100   PT        0.323396    0.343311    0.075843     0.004505
PT101   PT        0.356157    0.306157    0.075108     0.004505
PT102   PT        0.357365    0.342566    0.113322     0.004505
PT103   PT        0.393702    0.304137    0.111764     0.004505
PT104   PT        0.394019    0.343410    0.074249     0.004505
AU105   AU        0.427964    0.305905    0.075036     0.007504
AU106   AU        0.427443    0.344120    0.112052     0.007504
PT107   PT        0.465488    0.305350    0.112416     0.004505
AU108   AU        0.466603    0.343172    0.075395     0.007504
PT109   PT        0.500524    0.302802    0.075905     0.004505
PT110   PT        0.501086    0.342252    0.113459     0.004505
AU111   AU        0.536360    0.304201    0.111732     0.007504
PT112   PT        0.536731    0.343732    0.074154     0.004505
PT113   PT        0.572678    0.305366    0.077183     0.004505
AU114   AU        0.571412    0.344095    0.113116     0.007504
AU115   AU        0.605879    0.305102    0.113994     0.007504
PT116   PT        0.606892    0.343295    0.076782     0.004505
PT117   PT        0.642857    0.344605    0.112200     0.004505
PT118   PT        0.678743    0.303284    0.115409     0.004505
PT119   PT        0.142254    0.419831    0.113459     0.004505
AU120   AU        0.177854    0.385652    0.113706     0.007504
PT121   PT        0.178379    0.419907    0.076166     0.004505
PT122   PT        0.215594    0.383552    0.076487     0.004505
PT123   PT        0.212815    0.420555    0.112845     0.004505
AU124   AU        0.249493    0.383493    0.115332     0.007504
AU125   AU        0.250461    0.419273    0.075966     0.007504
PT126   PT        0.285866    0.380319    0.075041     0.004505
PT127   PT        0.285053    0.418698    0.111224     0.004505
PT128   PT        0.321768    0.382210    0.112472     0.004505
PT129   PT        0.322444    0.419551    0.074226     0.004505
PT130   PT        0.357296    0.380873    0.074980     0.004505
AU131   AU        0.357976    0.419410    0.112018     0.007504
AU132   AU        0.391960    0.379594    0.113254     0.007504
PT133   PT        0.392601    0.419282    0.075569     0.004505
PT134   PT        0.429937    0.381509    0.075454     0.004505
AU135   AU        0.429567    0.419601    0.111830     0.007504
AU136   AU        0.466095    0.381969    0.110179     0.007504
AU137   AU        0.466554    0.420896    0.076440     0.007504
PT138   PT        0.501166    0.379705    0.074278     0.004505
AU139   AU        0.503109    0.421352    0.111368     0.007504
PT140   PT        0.536050    0.381221    0.112052     0.004505
PT141   PT        0.537415    0.419499    0.075341     0.004505
PT142   PT        0.573181    0.382977    0.074772     0.004505
AU143   AU        0.572019    0.421185    0.114233     0.007504
PT144   PT        0.608587    0.382883    0.113570     0.004505
AU145   AU        0.607199    0.421724    0.076862     0.007504
PT146   PT        0.644684    0.383378    0.075866     0.004505
PT147   PT        0.644589    0.421020    0.113030     0.004505
PT148   PT        0.678433    0.383331    0.112072     0.004505
PT149   PT        0.679388    0.422192    0.076556     0.004505
PT150   PT        0.714961    0.419051    0.114905     0.004505
PT151   PT        0.133636    0.464521    0.103926     0.004505
AU152   AU        0.179616    0.456324    0.113240     0.007504
PT153   PT        0.179830    0.497156    0.075747     0.004505
PT154   PT        0.212669    0.458152    0.076226     0.004505
PT155   PT        0.213959    0.498774    0.111787     0.004505
PT156   PT        0.246859    0.459199    0.112921     0.004505
PT157   PT        0.249378    0.497785    0.075714     0.004505
AU158   AU        0.285779    0.458992    0.075736     0.007504
PT159   PT        0.283906    0.499354    0.112132     0.004505
PT160   PT        0.321887    0.458635    0.112240     0.004505
PT161   PT        0.318828    0.497508    0.074807     0.004505
AU162   AU        0.358346    0.459214    0.074901     0.007504
PT163   PT        0.356702    0.498836    0.111438     0.004505
AU164   AU        0.391645    0.458216    0.112066     0.007504
AU165   AU        0.392167    0.498248    0.075779     0.007504
PT166   PT        0.428653    0.457819    0.074772     0.004505
PT167   PT        0.429774    0.497866    0.112024     0.004505
PT168   PT        0.463465    0.459187    0.113512     0.004505
PT169   PT        0.467261    0.496566    0.075238     0.004505
PT170   PT        0.501279    0.458257    0.074397     0.004505
AU171   AU        0.501697    0.496745    0.112533     0.007504
PT172   PT        0.537670    0.458117    0.112411     0.004505
PT173   PT        0.537628    0.497784    0.075811     0.004505
PT174   PT        0.571199    0.457413    0.074441     0.004505
AU175   AU        0.572488    0.496871    0.113315     0.007504
AU176   AU        0.606466    0.459187    0.112793     0.007504
AU177   AU        0.608008    0.496716    0.075891     0.007504
PT178   PT        0.642773    0.458495    0.076282     0.004505
PT179   PT        0.642652    0.498131    0.113195     0.004505
AU180   AU        0.679479    0.458530    0.113976     0.007504
PT181   PT        0.677693    0.497620    0.077240     0.004505
PT182   PT        0.712947    0.497052    0.114673     0.004505
PT183   PT        0.179199    0.536190    0.112259     0.004505
PT184   PT        0.214340    0.535372    0.074802     0.004505
PT185   PT        0.213972    0.575312    0.114114     0.004505
PT186   PT        0.248796    0.535478    0.113950     0.004505
PT187   PT        0.250167    0.574042    0.077778     0.004505
AU188   AU        0.285685    0.537592    0.075345     0.007504
PT189   PT        0.284820    0.574869    0.113594     0.004505
PT190   PT        0.320852    0.537684    0.110946     0.004505
PT191   PT        0.320415    0.575081    0.074935     0.004505
AU192   AU        0.357839    0.536498    0.075251     0.007504
PT193   PT        0.353981    0.575820    0.112195     0.004505
PT194   PT        0.393709    0.535290    0.113682     0.004505
PT195   PT        0.392973    0.574018    0.075998     0.004505
AU196   AU        0.428478    0.536917    0.075096     0.007504
PT197   PT        0.429247    0.575009    0.112237     0.004505
PT198   PT        0.467283    0.537976    0.111696     0.004505
PT199   PT        0.466229    0.574928    0.074833     0.004505
AU200   AU        0.501844    0.535907    0.075459     0.007504
PT201   PT        0.500907    0.574375    0.113425     0.004505
AU202   AU        0.536347    0.535688    0.113831     0.007504
AU203   AU        0.537814    0.575374    0.076079     0.007504
PT204   PT        0.573146    0.537210    0.075642     0.004505
PT205   PT        0.574697    0.573752    0.112993     0.004505
AU206   AU        0.608144    0.533756    0.113085     0.007504
PT207   PT        0.607961    0.572744    0.075865     0.004505
AU208   AU        0.642887    0.534422    0.076255     0.007504
PT209   PT        0.642165    0.574048    0.113635     0.004505
AU210   AU        0.678351    0.533592    0.113627     0.007504
PT211   PT        0.177592    0.613171    0.115264     0.004505
PT212   PT        0.213343    0.651509    0.113861     0.004505
AU213   AU        0.249776    0.613475    0.113002     0.007504
PT214   PT        0.249016    0.650456    0.078318     0.004505
AU215   AU        0.286797    0.612636    0.075810     0.007504
AU216   AU        0.286798    0.649377    0.114367     0.007504
AU217   AU        0.321139    0.613252    0.112595     0.007504
PT218   PT        0.322271    0.650775    0.076142     0.004505
PT219   PT        0.356182    0.613169    0.075951     0.004505
PT220   PT        0.357016    0.650231    0.112325     0.004505
PT221   PT        0.392804    0.613013    0.112565     0.004505
PT222   PT        0.392833    0.651623    0.075804     0.004505
PT223   PT        0.429205    0.610599    0.075256     0.004505
PT224   PT        0.429346    0.651418    0.114214     0.004505
AU225   AU        0.464866    0.613530    0.113934     0.007504
AU226   AU        0.465250    0.650913    0.076657     0.007504
PT227   PT        0.500576    0.612647    0.076640     0.004505
PT228   PT        0.498941    0.650416    0.113813     0.004505
AU229   AU        0.536814    0.615295    0.113282     0.007504
PT230   PT        0.534212    0.649921    0.077339     0.004505
PT231   PT        0.574138    0.610568    0.075984     0.004505
AU232   AU        0.571154    0.653107    0.113140     0.007504
PT233   PT        0.607526    0.613484    0.113341     0.004505
PT234   PT        0.607654    0.651866    0.077209     0.004505
PT235   PT        0.642909    0.648747    0.113706     0.004505
PT236   PT        0.678648    0.615581    0.114899     0.004505
PT237   PT        0.249452    0.687119    0.114622     0.004505
PT238   PT        0.282634    0.726304    0.113247     0.004505
PT239   PT        0.322674    0.689007    0.114185     0.004505
AU240   AU        0.357734    0.687663    0.075085     0.007504
PT241   PT        0.358787    0.725740    0.112302     0.004505
PT242   PT        0.392087    0.687957    0.112643     0.004505
PT243   PT        0.392740    0.726214    0.076300     0.004505
PT244   PT        0.428005    0.689184    0.077626     0.004505
PT245   PT        0.428441    0.727641    0.112395     0.004505
PT246   PT        0.463809    0.688476    0.113608     0.004505
PT247   PT        0.465291    0.725187    0.076654     0.004505
PT248   PT        0.498949    0.688308    0.076792     0.004505
AU249   AU        0.498931    0.726058    0.115147     0.007504
PT250   PT        0.535023    0.688344    0.116163     0.004505
PT251   PT        0.569342    0.726368    0.113893     0.004505
PT252   PT        0.607588    0.687773    0.113871     0.004505
AU253   AU        0.393026    0.763658    0.114671     0.007504
PT254   PT        0.462790    0.763225    0.114414     0.004505
PT255   PT        0.283739    0.115591    0.191011     0.004505
PT256   PT        0.358259    0.112849    0.188202     0.004505
PT257   PT        0.392583    0.078400    0.192026     0.004505
AU258   AU        0.394490    0.113312    0.152780     0.007504
PT259   PT        0.426967    0.115488    0.190641     0.004505
PT260   PT        0.464109    0.076594    0.190524     0.004505
PT261   PT        0.464749    0.112369    0.153026     0.004505
PT262   PT        0.499978    0.115737    0.191322     0.004505
AU263   AU        0.571512    0.116916    0.189967     0.007504
PT264   PT        0.214584    0.190025    0.190727     0.004505
PT265   PT        0.250094    0.152790    0.189499     0.004505
PT266   PT        0.251299    0.192506    0.153587     0.004505
PT267   PT        0.285274    0.152971    0.151613     0.004505
PT268   PT        0.285134    0.189213    0.191948     0.004505
PT269   PT        0.321250    0.151139    0.190257     0.004505
PT270   PT        0.321396    0.191053    0.151684     0.004505
AU271   AU        0.359934    0.151894    0.151708     0.007504
PT272   PT        0.355529    0.187436    0.191291     0.004505
PT273   PT        0.392841    0.152734    0.189686     0.004505
PT274   PT        0.393586    0.190341    0.151250     0.004505
AU275   AU        0.427861    0.151627    0.151374     0.007504
PT276   PT        0.427932    0.187229    0.190979     0.004505
AU277   AU        0.462323    0.151741    0.189130     0.007504
PT278   PT        0.462616    0.189504    0.150849     0.004505
PT279   PT        0.498713    0.153015    0.152056     0.004505
PT280   PT        0.500253    0.189915    0.188695     0.004505
AU281   AU        0.536675    0.153135    0.189815     0.007504
AU282   AU        0.535498    0.189028    0.151478     0.007504
AU283   AU        0.572804    0.154910    0.153562     0.007504
PT284   PT        0.571239    0.190939    0.189718     0.004505
PT285   PT        0.608186    0.152809    0.189207     0.004505
AU286   AU        0.608216    0.191942    0.153903     0.007504
PT287   PT        0.643671    0.191370    0.190987     0.004505
PT288   PT        0.144482    0.266596    0.192039     0.004505
AU289   AU        0.180577    0.228581    0.190726     0.007504
PT290   PT        0.179747    0.266693    0.151573     0.004505
AU291   AU        0.215766    0.230884    0.151213     0.007504
PT292   PT        0.214016    0.263681    0.190251     0.004505
AU293   AU        0.249816    0.228303    0.190460     0.007504
PT294   PT        0.251143    0.266106    0.152342     0.004505
PT295   PT        0.285310    0.230354    0.152696     0.004505
PT296   PT        0.284011    0.266239    0.190439     0.004505
AU297   AU        0.320878    0.227183    0.189388     0.007504
PT298   PT        0.323850    0.266099    0.150751     0.004505
PT299   PT        0.357481    0.227455    0.151578     0.004505
AU300   AU        0.356979    0.265906    0.189809     0.007504
AU301   AU        0.393203    0.228840    0.187973     0.007504
AU302   AU        0.391920    0.266805    0.150623     0.007504
PT303   PT        0.428108    0.228070    0.150038     0.004505
AU304   AU        0.428486    0.266573    0.188978     0.007504
AU305   AU        0.461876    0.224953    0.188463     0.007504
PT306   PT        0.462628    0.264048    0.150242     0.004505
PT307   PT        0.498852    0.227439    0.151259     0.004505
AU308   AU        0.500766    0.265580    0.189680     0.007504
AU309   AU        0.537016    0.226961    0.188158     0.007504
PT310   PT        0.535811    0.266748    0.151194     0.004505
AU311   AU        0.572212    0.227866    0.152204     0.007504
PT312   PT        0.572063    0.265469    0.190246     0.004505
PT313   PT        0.607679    0.228683    0.190932     0.004505
AU314   AU        0.607103    0.268083    0.152456     0.007504
AU315   AU        0.642120    0.230976    0.152047     0.007504
AU316   AU        0.645150    0.267909    0.189827     0.007504
AU317   AU        0.680164    0.228735    0.192300     0.007504
PT318   PT        0.679475    0.267981    0.153730     0.004505
PT319   PT        0.713475    0.267017    0.190575     0.004505
AU320   AU        0.110405    0.303768    0.189286     0.007504
AU321   AU        0.144047    0.303709    0.151879     0.007504
PT322   PT        0.144367    0.342857    0.188794     0.004505
AU323   AU        0.177690    0.304490    0.190212     0.007504
AU324   AU        0.178660    0.343844    0.152801     0.007504
PT325   PT        0.215008    0.304555    0.151862     0.004505
PT326   PT        0.215668    0.342856    0.189658     0.004505
PT327   PT        0.250528    0.304141    0.190625     0.004505
PT328   PT        0.250365    0.341411    0.150608     0.004505
AU329   AU        0.285508    0.303787    0.151245     0.007504
AU330   AU        0.284500    0.343356    0.189407     0.007504
AU331   AU        0.318944    0.305316    0.190386     0.007504
AU332   AU        0.320820    0.342049    0.150407     0.007504
PT333   PT        0.357827    0.305208    0.150575     0.004505
AU334   AU        0.355781    0.343795    0.188116     0.007504
PT335   PT        0.392664    0.302002    0.189604     0.004505
PT336   PT        0.392398    0.344045    0.150957     0.004505
PT337   PT        0.428475    0.303956    0.149564     0.004505
AU338   AU        0.427613    0.342921    0.187967     0.007504
PT339   PT        0.464664    0.303406    0.188685     0.004505
AU340   AU        0.464220    0.344732    0.149010     0.007504
PT341   PT        0.501751    0.302151    0.152289     0.004505
AU342   AU        0.502116    0.342638    0.187768     0.007504
AU343   AU        0.537623    0.305699    0.189845     0.007504
PT344   PT        0.537934    0.344205    0.151991     0.004505
PT345   PT        0.571603    0.304944    0.149598     0.004505
AU346   AU        0.573247    0.344140    0.188300     0.007504
AU347   AU        0.609591    0.305584    0.189384     0.007504
PT348   PT        0.610543    0.345111    0.150462     0.004505
AU349   AU        0.643916    0.304248    0.151741     0.007504
AU350   AU        0.644065    0.342994    0.190534     0.007504
PT351   PT        0.679827    0.305859    0.190303     0.004505
PT352   PT        0.678200    0.343342    0.151761     0.004505
PT353   PT        0.714121    0.306070    0.152631     0.004505
PT354   PT        0.715781    0.343213    0.190251     0.004505
PT355   PT        0.750292    0.306246    0.191176     0.004505
AU356   AU        0.072836    0.420954    0.190385     0.007504
PT357   PT        0.106271    0.383521    0.189164     0.004505
PT358   PT        0.107476    0.418735    0.151561     0.004505
PT359   PT        0.142665    0.384010    0.149915     0.004505
PT360   PT        0.141121    0.421211    0.188898     0.004505
PT361   PT        0.176778    0.384285    0.189768     0.004505
PT362   PT        0.178274    0.419850    0.151841     0.004505
PT363   PT        0.214186    0.383278    0.151872     0.004505
PT364   PT        0.215055    0.420810    0.188185     0.004505
AU365   AU        0.251648    0.380174    0.186304     0.007504
PT366   PT        0.249363    0.421631    0.149459     0.004505
PT367   PT        0.286601    0.381761    0.150768     0.004505
AU368   AU        0.282308    0.422303    0.189585     0.007504
AU369   AU        0.320904    0.379989    0.186563     0.007504
AU370   AU        0.320435    0.421509    0.149531     0.007504
AU371   AU        0.357102    0.382592    0.150719     0.007504
AU372   AU        0.358336    0.418303    0.190477     0.007504
PT373   PT        0.393223    0.381748    0.187409     0.004505
PT374   PT        0.392270    0.419551    0.149208     0.004505
PT375   PT        0.429017    0.381666    0.150764     0.004505
AU376   AU        0.429281    0.417620    0.189332     0.007504
PT377   PT        0.466055    0.380130    0.188348     0.004505
AU378   AU        0.464847    0.419352    0.150802     0.007504
AU379   AU        0.502596    0.380064    0.149371     0.007504
AU380   AU        0.504722    0.419167    0.189636     0.007504
AU381   AU        0.535025    0.381207    0.189189     0.007504
AU382   AU        0.537608    0.422248    0.150841     0.007504
PT383   PT        0.573412    0.383127    0.152005     0.004505
PT384   PT        0.573346    0.422064    0.189910     0.004505
AU385   AU        0.609090    0.383290    0.190028     0.007504
AU386   AU        0.610141    0.418393    0.150405     0.007504
AU387   AU        0.645542    0.381969    0.152777     0.007504
PT388   PT        0.643577    0.419801    0.188261     0.004505
AU389   AU        0.679521    0.381941    0.189200     0.007504
AU390   AU        0.679602    0.423584    0.150909     0.007504
PT391   PT        0.713434    0.384785    0.154074     0.004505
AU392   AU        0.715759    0.420178    0.190978     0.007504
AU393   AU        0.749412    0.382779    0.191767     0.007504
PT394   PT        0.750957    0.421181    0.154720     0.004505
PT395   PT        0.784283    0.417307    0.193073     0.004505
PT396   PT        0.071202    0.495078    0.190146     0.004505
PT397   PT        0.106899    0.461126    0.188781     0.004505
AU398   AU        0.106939    0.498153    0.153691     0.007504
PT399   PT        0.143386    0.459502    0.152599     0.004505
AU400   AU        0.141897    0.498374    0.190431     0.007504
PT401   PT        0.176655    0.459047    0.189284     0.004505
PT402   PT        0.177193    0.498361    0.152536     0.004505
PT403   PT        0.212584    0.458343    0.152685     0.004505
AU404   AU        0.211833    0.496896    0.187819     0.007504
AU405   AU        0.247018    0.460374    0.190554     0.007504
AU406   AU        0.246663    0.498594    0.151632     0.007504
AU407   AU        0.282541    0.460166    0.150897     0.007504
AU408   AU        0.285427    0.498021    0.189097     0.007504
PT409   PT        0.319063    0.458292    0.188170     0.004505
PT410   PT        0.320274    0.499530    0.150422     0.004505
AU411   AU        0.356056    0.459997    0.149340     0.007504
AU412   AU        0.357307    0.499103    0.189549     0.007504
AU413   AU        0.392663    0.455954    0.187610     0.007504
PT414   PT        0.392627    0.494747    0.147764     0.004505
AU415   AU        0.427891    0.458844    0.150035     0.007504
AU416   AU        0.428441    0.496089    0.188034     0.007504
PT417   PT        0.465716    0.458858    0.189883     0.004505
AU418   AU        0.464489    0.499157    0.150938     0.007504
AU419   AU        0.500506    0.458454    0.148601     0.007504
AU420   AU        0.500701    0.497313    0.189468     0.007504
AU421   AU        0.537718    0.460809    0.188737     0.007504
PT422   PT        0.535997    0.496597    0.149597     0.004505
PT423   PT        0.572811    0.458833    0.152182     0.004505
AU424   AU        0.571999    0.496534    0.188836     0.007504
PT425   PT        0.609650    0.457911    0.188168     0.004505
PT426   PT        0.608576    0.496792    0.150941     0.004505
AU427   AU        0.644666    0.458024    0.149526     0.007504
AU428   AU        0.644510    0.497804    0.187466     0.007504
AU429   AU        0.679850    0.457928    0.187713     0.007504
AU430   AU        0.678418    0.496297    0.151367     0.007504
PT431   PT        0.714600    0.458095    0.151154     0.004505
PT432   PT        0.714270    0.497849    0.189477     0.004505
AU433   AU        0.750087    0.458935    0.188760     0.007504
PT434   PT        0.749638    0.497872    0.153552     0.004505
PT435   PT        0.784779    0.498319    0.187857     0.004505
PT436   PT        0.107674    0.534992    0.191205     0.004505
PT437   PT        0.142520    0.536074    0.154830     0.004505
PT438   PT        0.142514    0.574939    0.189923     0.004505
PT439   PT        0.178053    0.535910    0.188792     0.004505
PT440   PT        0.178021    0.575060    0.152394     0.004505
AU441   AU        0.212717    0.536903    0.150783     0.007504
AU442   AU        0.214429    0.574257    0.187505     0.007504
AU443   AU        0.246678    0.536419    0.188700     0.007504
AU444   AU        0.249158    0.573652    0.151397     0.007504
PT445   PT        0.283999    0.535948    0.151106     0.004505
PT446   PT        0.284031    0.573211    0.188228     0.004505
AU447   AU        0.321246    0.536369    0.188708     0.007504
AU448   AU        0.318101    0.576801    0.150832     0.007504
AU449   AU        0.354703    0.537607    0.149382     0.007504
PT450   PT        0.355223    0.576372    0.186456     0.004505
AU451   AU        0.391289    0.537501    0.188662     0.007504
PT452   PT        0.390032    0.574277    0.149616     0.004505
AU453   AU        0.430459    0.536681    0.150597     0.007504
PT454   PT        0.427450    0.575107    0.189662     0.004505
AU455   AU        0.465407    0.536909    0.190028     0.007504
AU456   AU        0.463828    0.575607    0.150263     0.007504
AU457   AU        0.499493    0.537859    0.150745     0.007504
AU458   AU        0.501446    0.574676    0.189386     0.007504
PT459   PT        0.538348    0.536321    0.188090     0.004505
PT460   PT        0.537123    0.574474    0.152165     0.004505
PT461   PT        0.574184    0.535013    0.150691     0.004505
AU462   AU        0.573427    0.576423    0.188425     0.007504
AU463   AU        0.609414    0.535415    0.187519     0.007504
AU464   AU        0.610672    0.574595    0.152559     0.007504
AU465   AU        0.644669    0.536083    0.150259     0.007504
PT466   PT        0.644845    0.574298    0.189645     0.004505
AU467   AU        0.678705    0.535056    0.189463     0.007504
AU468   AU        0.676704    0.575169    0.152800     0.007504
AU469   AU        0.713671    0.536015    0.153229     0.007504
PT470   PT        0.713047    0.573109    0.189350     0.004505
PT471   PT        0.749334    0.535440    0.191394     0.004505
PT472   PT        0.107343    0.614240    0.191061     0.004505
PT473   PT        0.143519    0.614683    0.152087     0.004505
PT474   PT        0.143865    0.651672    0.188658     0.004505
PT475   PT        0.177715    0.614076    0.188517     0.004505
PT476   PT        0.178919    0.651238    0.151492     0.004505
PT477   PT        0.215429    0.614383    0.149631     0.004505
AU478   AU        0.213198    0.651053    0.189830     0.007504
PT479   PT        0.248523    0.614289    0.188226     0.004505
AU480   AU        0.249505    0.652434    0.152102     0.007504
PT481   PT        0.284754    0.614875    0.151770     0.004505
AU482   AU        0.284307    0.652820    0.188345     0.007504
AU483   AU        0.321153    0.614907    0.190087     0.007504
AU484   AU        0.321205    0.651654    0.152630     0.007504
AU485   AU        0.356637    0.615867    0.149267     0.007504
AU486   AU        0.357727    0.650896    0.189545     0.007504
AU487   AU        0.391861    0.614794    0.190440     0.007504
AU488   AU        0.393408    0.651872    0.151558     0.007504
AU489   AU        0.427286    0.614679    0.149625     0.007504
AU490   AU        0.428216    0.651549    0.187508     0.007504
AU491   AU        0.465678    0.615208    0.188742     0.007504
AU492   AU        0.464639    0.651271    0.151951     0.007504
AU493   AU        0.502031    0.614484    0.149564     0.007504
AU494   AU        0.501063    0.651972    0.189040     0.007504
PT495   PT        0.537756    0.612464    0.189242     0.004505
AU496   AU        0.536058    0.653039    0.153394     0.007504
AU497   AU        0.573432    0.616262    0.151336     0.007504
PT498   PT        0.571844    0.652434    0.191092     0.004505
AU499   AU        0.609881    0.614630    0.189358     0.007504
AU500   AU        0.607881    0.651967    0.152128     0.007504
PT501   PT        0.644143    0.613579    0.151403     0.004505
AU502   AU        0.645272    0.652276    0.190232     0.007504
PT503   PT        0.678839    0.613919    0.190571     0.004505
PT504   PT        0.678130    0.648830    0.152985     0.004505
PT505   PT        0.712702    0.610803    0.152955     0.004505
PT506   PT        0.713147    0.648865    0.190608     0.004505
PT507   PT        0.747898    0.611637    0.193043     0.004505
PT508   PT        0.178044    0.688599    0.189009     0.004505
PT509   PT        0.213899    0.688718    0.151592     0.004505
PT510   PT        0.213095    0.727336    0.188946     0.004505
PT511   PT        0.248826    0.690355    0.189898     0.004505
AU512   AU        0.248446    0.725418    0.151069     0.007504
AU513   AU        0.284815    0.690149    0.151133     0.007504
AU514   AU        0.286802    0.727266    0.189452     0.007504
PT515   PT        0.321525    0.688812    0.190020     0.004505
PT516   PT        0.320215    0.727955    0.151077     0.004505
PT517   PT        0.357699    0.688163    0.150118     0.004505
AU518   AU        0.354756    0.727793    0.187045     0.007504
PT519   PT        0.391510    0.690706    0.187445     0.004505
PT520   PT        0.394058    0.726807    0.150424     0.004505
AU521   AU        0.428218    0.690108    0.150481     0.007504
AU522   AU        0.428192    0.727851    0.187741     0.007504
AU523   AU        0.462742    0.690232    0.188999     0.007504
PT524   PT        0.463344    0.726687    0.151345     0.004505
AU525   AU        0.500241    0.689883    0.152771     0.007504
PT526   PT        0.502087    0.728702    0.190829     0.004505
AU527   AU        0.536620    0.691283    0.188282     0.007504
PT528   PT        0.534421    0.728026    0.151547     0.004505
PT529   PT        0.571518    0.688920    0.152234     0.004505
PT530   PT        0.571136    0.728597    0.189053     0.004505
AU531   AU        0.607933    0.689468    0.189030     0.007504
PT532   PT        0.605168    0.727821    0.152203     0.004505
PT533   PT        0.641581    0.687481    0.151931     0.004505
AU534   AU        0.640344    0.728149    0.189242     0.007504
PT535   PT        0.686222    0.698606    0.145528     0.004505
AU536   AU        0.250492    0.765160    0.191450     0.007504
PT537   PT        0.283675    0.763937    0.151767     0.004505
PT538   PT        0.284884    0.802775    0.190493     0.004505
PT539   PT        0.322966    0.765786    0.189161     0.004505
PT540   PT        0.359970    0.765208    0.152491     0.004505
PT541   PT        0.358755    0.803194    0.190579     0.004505
PT542   PT        0.392827    0.764374    0.190488     0.004505
AU543   AU        0.394046    0.802578    0.153546     0.007504
PT544   PT        0.429047    0.764779    0.150764     0.004505
PT545   PT        0.428618    0.804093    0.188339     0.004505
PT546   PT        0.462200    0.765307    0.190815     0.004505
AU547   AU        0.463436    0.801790    0.153244     0.007504
PT548   PT        0.497808    0.762602    0.152936     0.004505
PT549   PT        0.498175    0.800042    0.190763     0.004505
AU550   AU        0.538260    0.766103    0.189337     0.007504
PT551   PT        0.571765    0.764035    0.152765     0.004505
PT552   PT        0.572250    0.802601    0.190420     0.004505
PT553   PT        0.607589    0.766237    0.190048     0.004505
PT554   PT        0.393862    0.840413    0.188854     0.004505
PT555   PT        0.464958    0.839951    0.192748     0.004505
AU556   AU        0.362270    0.026621    0.226402     0.007504
PT557   PT        0.429469    0.041088    0.267303     0.004505
AU558   AU        0.502059    0.038890    0.267409     0.007504
PT559   PT        0.214607    0.115193    0.266955     0.004505
AU560   AU        0.249203    0.076435    0.266650     0.007504
AU561   AU        0.249234    0.114578    0.228612     0.007504
PT562   PT        0.285479    0.113585    0.267366     0.004505
PT563   PT        0.322358    0.077717    0.267401     0.004505
AU564   AU        0.321368    0.114275    0.229376     0.007504
PT565   PT        0.357098    0.077494    0.229102     0.004505
PT566   PT        0.356793    0.114419    0.265978     0.004505
AU567   AU        0.392970    0.075947    0.267373     0.007504
PT568   PT        0.393288    0.114680    0.228363     0.004505
AU569   AU        0.431329    0.077438    0.227626     0.007504
PT570   PT        0.427437    0.112974    0.267167     0.004505
PT571   PT        0.465247    0.074635    0.265199     0.004505
PT572   PT        0.465074    0.112912    0.226517     0.004505
AU573   AU        0.499780    0.075151    0.228087     0.007504
PT574   PT        0.501239    0.114004    0.265895     0.004505
AU575   AU        0.535890    0.076027    0.266869     0.007504
PT576   PT        0.536556    0.113565    0.227576     0.004505
PT577   PT        0.572040    0.114956    0.267090     0.004505
AU578   AU        0.604791    0.076919    0.265538     0.007504
PT579   PT        0.608224    0.115415    0.228867     0.004505
PT580   PT        0.643116    0.114241    0.264812     0.004505
AU581   AU        0.144757    0.189866    0.267010     0.007504
AU582   AU        0.178361    0.153396    0.267615     0.007504
PT583   PT        0.179335    0.189415    0.228680     0.004505
PT584   PT        0.216315    0.151636    0.228523     0.004505
AU585   AU        0.214422    0.189564    0.265874     0.007504
PT586   PT        0.248630    0.153321    0.268277     0.004505
AU587   AU        0.248850    0.190595    0.227105     0.007504
PT588   PT        0.284144    0.150978    0.227482     0.004505
AU589   AU        0.286811    0.188136    0.265298     0.007504
PT590   PT        0.320106    0.150125    0.267890     0.004505
AU591   AU        0.321433    0.188872    0.228952     0.007504
AU592   AU        0.357910    0.150577    0.226994     0.007504
PT593   PT        0.356346    0.187619    0.264340     0.004505
AU594   AU        0.392273    0.150209    0.267723     0.007504
AU595   AU        0.392118    0.189407    0.228454     0.007504
AU596   AU        0.428824    0.150151    0.229234     0.007504
AU597   AU        0.427725    0.189756    0.267434     0.007504
AU598   AU        0.463523    0.149879    0.265945     0.007504
PT599   PT        0.466272    0.190514    0.228086     0.004505
PT600   PT        0.500085    0.152740    0.229710     0.004505
AU601   AU        0.501868    0.188603    0.267794     0.007504
PT602   PT        0.538132    0.152515    0.267398     0.004505
PT603   PT        0.536808    0.189263    0.226602     0.004505
PT604   PT        0.573481    0.152564    0.229661     0.004505
AU605   AU        0.573191    0.188369    0.266696     0.007504
PT606   PT        0.607761    0.151452    0.268352     0.004505
AU607   AU        0.608936    0.189378    0.229290     0.007504
PT608   PT        0.642598    0.152926    0.230417     0.004505
PT609   PT        0.643933    0.190291    0.265802     0.004505
PT610   PT        0.678913    0.154025    0.268186     0.004505
PT611   PT        0.677274    0.191345    0.229646     0.004505
PT612   PT        0.713972    0.191494    0.267067     0.004505
PT613   PT        0.073396    0.265893    0.266990     0.004505
PT614   PT        0.109128    0.228674    0.265863     0.004505
PT615   PT        0.108816    0.269571    0.229281     0.004505
PT616   PT        0.142662    0.228135    0.227838     0.004505
AU617   AU        0.143831    0.265797    0.265839     0.007504
PT618   PT        0.178756    0.227511    0.266784     0.004505
AU619   AU        0.178693    0.266329    0.228206     0.007504
PT620   PT        0.214711    0.228159    0.228342     0.004505
PT621   PT        0.212266    0.264001    0.268362     0.004505
AU622   AU        0.248346    0.225293    0.267295     0.007504
PT623   PT        0.249460    0.268169    0.227378     0.004505
AU624   AU        0.286329    0.228026    0.229716     0.007504
PT625   PT        0.283984    0.265273    0.269034     0.004505
AU626   AU        0.321335    0.226610    0.264598     0.007504
PT627   PT        0.322775    0.265348    0.227064     0.004505
AU628   AU        0.357821    0.226959    0.227066     0.007504
AU629   AU        0.356441    0.265923    0.267334     0.007504
AU630   AU        0.392611    0.228148    0.264178     0.007504
PT631   PT        0.391608    0.265641    0.228804     0.004505
AU632   AU        0.429007    0.226895    0.226529     0.007504
AU633   AU        0.429781    0.265831    0.265704     0.007504
AU634   AU        0.465254    0.226291    0.266081     0.007504
PT635   PT        0.465447    0.265783    0.225691     0.004505
AU636   AU        0.500476    0.227133    0.225732     0.007504
AU637   AU        0.500406    0.266197    0.264655     0.007504
AU638   AU        0.537654    0.226747    0.265449     0.007504
PT639   PT        0.536662    0.265781    0.227699     0.004505
PT640   PT        0.573601    0.227190    0.228178     0.004505
PT641   PT        0.571882    0.268946    0.264966     0.004505
PT642   PT        0.608954    0.227318    0.265747     0.004505
AU643   AU        0.609234    0.267604    0.227635     0.007504
PT644   PT        0.643972    0.228739    0.227665     0.004505
AU645   AU        0.644415    0.267157    0.268078     0.007504
PT646   PT        0.679159    0.229093    0.265883     0.004505
PT647   PT        0.679733    0.267638    0.227595     0.004505
PT648   PT        0.713732    0.228842    0.230275     0.004505
PT649   PT        0.714829    0.266208    0.267332     0.004505
PT650   PT        0.748881    0.229273    0.267713     0.004505
PT651   PT        0.748180    0.265962    0.228846     0.004505
AU652   AU        0.784171    0.265353    0.268004     0.007504
PT653   PT        0.072880    0.344449    0.267252     0.004505
AU654   AU        0.107581    0.305028    0.267645     0.007504
PT655   PT        0.108775    0.343402    0.226358     0.004505
PT656   PT        0.142872    0.305324    0.228898     0.004505
PT657   PT        0.141107    0.345314    0.266201     0.004505
PT658   PT        0.178068    0.302967    0.266863     0.004505
PT659   PT        0.177454    0.342942    0.227998     0.004505
AU660   AU        0.213877    0.303178    0.228337     0.007504
AU661   AU        0.214048    0.342933    0.265425     0.007504
PT662   PT        0.249625    0.303295    0.265589     0.004505
AU663   AU        0.249610    0.344054    0.225723     0.007504
PT664   PT        0.283954    0.306633    0.225798     0.004505
AU665   AU        0.286678    0.341587    0.267393     0.007504
AU666   AU        0.318638    0.303766    0.266235     0.007504
AU667   AU        0.319518    0.343700    0.227741     0.007504
AU668   AU        0.358161    0.304331    0.228138     0.007504
AU669   AU        0.354920    0.343559    0.268978     0.007504
AU670   AU        0.393454    0.303710    0.268005     0.007504
AU671   AU        0.393208    0.341678    0.227157     0.007504
AU672   AU        0.428080    0.303598    0.228557     0.007504
AU673   AU        0.428325    0.341799    0.265790     0.007504
AU674   AU        0.465589    0.303840    0.266320     0.007504
AU675   AU        0.466465    0.340580    0.228080     0.007504
AU676   AU        0.501216    0.303105    0.228119     0.007504
PT677   PT        0.500084    0.342954    0.267650     0.004505
AU678   AU        0.535811    0.304070    0.267641     0.007504
PT679   PT        0.537285    0.342603    0.229845     0.004505
PT680   PT        0.570713    0.304512    0.226616     0.004505
PT681   PT        0.573814    0.345232    0.266515     0.004505
PT682   PT        0.609677    0.305932    0.265736     0.004505
PT683   PT        0.609890    0.344167    0.229326     0.004505
PT684   PT        0.646576    0.305440    0.228331     0.004505
PT685   PT        0.647242    0.345085    0.266718     0.004505
PT686   PT        0.681093    0.304530    0.265766     0.004505
AU687   AU        0.680231    0.343781    0.226948     0.007504
AU688   AU        0.714879    0.305370    0.229225     0.007504
PT689   PT        0.714590    0.342261    0.266843     0.004505
PT690   PT        0.749924    0.304212    0.268500     0.004505
PT691   PT        0.749872    0.344088    0.228962     0.004505
AU692   AU        0.784995    0.345117    0.266640     0.007504
PT693   PT        0.038313    0.382754    0.266652     0.004505
PT694   PT        0.071978    0.383880    0.228837     0.004505
PT695   PT        0.072999    0.420948    0.266567     0.004505
AU696   AU        0.106161    0.381896    0.266285     0.007504
AU697   AU        0.107047    0.421841    0.228177     0.007504
AU698   AU        0.141801    0.383026    0.226150     0.007504
PT699   PT        0.141649    0.422361    0.267985     0.004505
PT700   PT        0.176497    0.383236    0.265641     0.004505
AU701   AU        0.175259    0.421676    0.230468     0.007504
PT702   PT        0.213477    0.383040    0.226624     0.004505
AU703   AU        0.213496    0.423454    0.265806     0.007504
AU704   AU        0.248389    0.382283    0.263848     0.007504
PT705   PT        0.247633    0.422322    0.228021     0.004505
AU706   AU        0.283395    0.383278    0.227361     0.007504
AU707   AU        0.285427    0.419886    0.268383     0.007504
AU708   AU        0.321503    0.381435    0.268217     0.007504
AU709   AU        0.318161    0.419814    0.227601     0.007504
AU710   AU        0.358160    0.379876    0.227001     0.007504
AU711   AU        0.356293    0.420470    0.265501     0.007504
AU712   AU        0.392531    0.381183    0.265143     0.007504
AU713   AU        0.392767    0.419320    0.229022     0.007504
AU714   AU        0.429187    0.379457    0.226557     0.007504
AU715   AU        0.426176    0.420353    0.266944     0.007504
AU716   AU        0.462996    0.381919    0.264894     0.007504
AU717   AU        0.461755    0.420447    0.227167     0.007504
AU718   AU        0.500152    0.381584    0.230023     0.007504
AU719   AU        0.501693    0.421409    0.266376     0.007504
AU720   AU        0.536238    0.382908    0.267535     0.007504
AU721   AU        0.539199    0.420762    0.228143     0.007504
PT722   PT        0.571390    0.382556    0.226968     0.004505
AU723   AU        0.571581    0.420849    0.267559     0.007504
AU724   AU        0.608159    0.383739    0.266544     0.007504
AU725   AU        0.609472    0.421309    0.227852     0.007504
PT726   PT        0.642717    0.385014    0.228526     0.004505
AU727   AU        0.644994    0.421762    0.265912     0.007504
AU728   AU        0.681074    0.382301    0.264038     0.007504
AU729   AU        0.680461    0.422240    0.227213     0.007504
PT730   PT        0.714876    0.380842    0.227227     0.004505
PT731   PT        0.714989    0.421495    0.265827     0.004505
PT732   PT        0.750068    0.383316    0.266656     0.004505
PT733   PT        0.749925    0.421162    0.227954     0.004505
AU734   AU        0.784578    0.381851    0.229609     0.007504
AU735   AU        0.784965    0.420901    0.267065     0.007504
AU736   AU        0.820052    0.381406    0.267598     0.007504
AU737   AU        0.039873    0.459860    0.265454     0.007504
PT738   PT        0.073751    0.459531    0.229294     0.004505
PT739   PT        0.071651    0.498365    0.266846     0.004505
PT740   PT        0.107033    0.461274    0.267186     0.004505
PT741   PT        0.106085    0.498300    0.228832     0.004505
AU742   AU        0.141942    0.460688    0.227455     0.007504
PT743   PT        0.142135    0.498753    0.264036     0.004505
AU744   AU        0.176478    0.457994    0.267729     0.007504
PT745   PT        0.176431    0.499076    0.226981     0.004505
PT746   PT        0.212569    0.458687    0.226860     0.004505
AU747   AU        0.213085    0.495786    0.266210     0.007504
AU748   AU        0.250998    0.459074    0.267527     0.007504
AU749   AU        0.249576    0.498097    0.227492     0.007504
AU750   AU        0.284591    0.459741    0.228230     0.007504
AU751   AU        0.286136    0.497957    0.266992     0.007504
PT752   PT        0.318681    0.457196    0.265584     0.004505
AU753   AU        0.321928    0.498571    0.226182     0.007504
AU754   AU        0.359146    0.458692    0.226162     0.007504
AU755   AU        0.355915    0.498007    0.268253     0.007504
AU756   AU        0.392795    0.458382    0.266608     0.007504
AU757   AU        0.393152    0.498007    0.225804     0.007504
AU758   AU        0.428513    0.457094    0.225055     0.007504
AU759   AU        0.429605    0.497165    0.263476     0.007504
AU760   AU        0.464901    0.459552    0.266138     0.007504
AU761   AU        0.466070    0.498513    0.225844     0.007504
AU762   AU        0.501451    0.459123    0.227784     0.007504
PT763   PT        0.502644    0.496123    0.267320     0.004505
PT764   PT        0.537969    0.459203    0.267728     0.004505
AU765   AU        0.535766    0.495931    0.227126     0.007504
PT766   PT        0.573201    0.459889    0.228066     0.004505
AU767   AU        0.572495    0.496013    0.265666     0.007504
AU768   AU        0.606992    0.458485    0.266742     0.007504
AU769   AU        0.610032    0.495380    0.226845     0.007504
PT770   PT        0.645357    0.458142    0.227303     0.004505
AU771   AU        0.644105    0.498091    0.266038     0.007504
PT772   PT        0.680355    0.459935    0.267695     0.004505
PT773   PT        0.679606    0.495377    0.228625     0.004505
AU774   AU        0.715618    0.460186    0.229271     0.007504
PT775   PT        0.715771    0.496873    0.266209     0.004505
PT776   PT        0.751374    0.459021    0.266148     0.004505
AU777   AU        0.751057    0.496834    0.228467     0.007504
PT778   PT        0.785097    0.457169    0.227823     0.004505
AU779   AU        0.786156    0.498001    0.266871     0.007504
PT780   PT        0.819484    0.458727    0.264591     0.004505
PT781   PT        0.038194    0.535610    0.268038     0.004505
AU782   AU        0.071516    0.535547    0.228808     0.007504
PT783   PT        0.073054    0.573500    0.268252     0.004505
PT784   PT        0.106699    0.533925    0.266279     0.004505
PT785   PT        0.108426    0.572971    0.227761     0.004505
AU786   AU        0.142954    0.538029    0.226808     0.007504
AU787   AU        0.142399    0.575771    0.266321     0.007504
AU788   AU        0.177772    0.538733    0.264637     0.007504
AU789   AU        0.178997    0.576140    0.224495     0.007504
PT790   PT        0.212257    0.537135    0.227455     0.004505
AU791   AU        0.212589    0.575328    0.263368     0.007504
AU792   AU        0.248867    0.536999    0.267883     0.007504
AU793   AU        0.249822    0.575040    0.227184     0.007504
AU794   AU        0.285257    0.535104    0.227542     0.007504
AU795   AU        0.284792    0.576637    0.266976     0.007504
AU796   AU        0.320984    0.534660    0.265434     0.007504
PT797   PT        0.320470    0.574791    0.225665     0.004505
AU798   AU        0.355468    0.537509    0.226909     0.007504
PT799   PT        0.356528    0.575621    0.265350     0.004505
AU800   AU        0.391318    0.535935    0.266600     0.007504
AU801   AU        0.391375    0.573483    0.225662     0.007504
AU802   AU        0.427597    0.536268    0.226996     0.007504
AU803   AU        0.428973    0.570840    0.266805     0.007504
AU804   AU        0.464270    0.534444    0.263764     0.007504
PT805   PT        0.464062    0.573711    0.226714     0.004505
PT806   PT        0.502875    0.534823    0.226572     0.004505
PT807   PT        0.503078    0.571384    0.264796     0.004505
PT808   PT        0.537160    0.534793    0.266103     0.004505
AU809   AU        0.537509    0.575050    0.228112     0.007504
AU810   AU        0.572696    0.534527    0.228356     0.007504
PT811   PT        0.569866    0.575019    0.267138     0.004505
AU812   AU        0.608305    0.534707    0.265650     0.007504
AU813   AU        0.609032    0.573641    0.225903     0.007504
AU814   AU        0.644450    0.533871    0.227076     0.007504
PT815   PT        0.644307    0.575526    0.264672     0.004505
PT816   PT        0.679577    0.536677    0.264443     0.004505
PT817   PT        0.678880    0.573714    0.226051     0.004505
PT818   PT        0.715818    0.535924    0.227496     0.004505
AU819   AU        0.715053    0.573688    0.266531     0.007504
PT820   PT        0.751052    0.536599    0.266913     0.004505
PT821   PT        0.748370    0.572855    0.228642     0.004505
AU822   AU        0.784767    0.534332    0.229218     0.007504
PT823   PT        0.783633    0.574364    0.267148     0.004505
PT824   PT        0.820381    0.537826    0.268322     0.004505
AU825   AU        0.073477    0.651775    0.266200     0.007504
PT826   PT        0.107238    0.613265    0.266717     0.004505
PT827   PT        0.107854    0.651314    0.228509     0.004505
PT828   PT        0.142215    0.614095    0.228922     0.004505
PT829   PT        0.142050    0.650976    0.266254     0.004505
AU830   AU        0.178937    0.614743    0.266282     0.007504
PT831   PT        0.177212    0.650264    0.228358     0.004505
AU832   AU        0.212201    0.612121    0.226247     0.007504
PT833   PT        0.211844    0.654473    0.266369     0.004505
PT834   PT        0.246611    0.615552    0.264137     0.004505
PT835   PT        0.248187    0.652531    0.226615     0.004505
PT836   PT        0.283143    0.613898    0.226686     0.004505
PT837   PT        0.282752    0.653291    0.262781     0.004505
AU838   AU        0.321701    0.614749    0.267337     0.007504
AU839   AU        0.322125    0.650496    0.227780     0.007504
PT840   PT        0.355336    0.612231    0.228721     0.004505
AU841   AU        0.357202    0.652177    0.266306     0.007504
AU842   AU        0.391322    0.611033    0.265386     0.007504
AU843   AU        0.392081    0.652680    0.227382     0.007504
AU844   AU        0.428270    0.612135    0.227037     0.007504
PT845   PT        0.427247    0.650972    0.267411     0.004505
PT846   PT        0.459542    0.613205    0.267100     0.004505
AU847   AU        0.464158    0.652926    0.225441     0.007504
AU848   AU        0.502456    0.612996    0.225695     0.007504
AU849   AU        0.501628    0.654035    0.265845     0.007504
AU850   AU        0.537981    0.615372    0.264183     0.007504
AU851   AU        0.535975    0.652580    0.227514     0.007504
AU852   AU        0.572693    0.615415    0.227287     0.007504
AU853   AU        0.573756    0.651281    0.265880     0.007504
AU854   AU        0.609269    0.612989    0.265772     0.007504
AU855   AU        0.609057    0.651012    0.227134     0.007504
AU856   AU        0.645141    0.614067    0.228390     0.007504
AU857   AU        0.644040    0.651029    0.266794     0.007504
AU858   AU        0.681193    0.613394    0.267301     0.007504
AU859   AU        0.679915    0.651493    0.227022     0.007504
AU860   AU        0.714778    0.611852    0.227785     0.007504
AU861   AU        0.715788    0.652150    0.267701     0.007504
AU862   AU        0.749620    0.613991    0.268851     0.007504
PT863   PT        0.748954    0.649863    0.229666     0.004505
AU864   AU        0.783652    0.650217    0.267616     0.007504
PT865   PT        0.107933    0.687976    0.267942     0.004505
PT866   PT        0.141749    0.686884    0.228929     0.004505
PT867   PT        0.142672    0.727539    0.264217     0.004505
PT868   PT        0.178269    0.689540    0.264856     0.004505
PT869   PT        0.178500    0.726037    0.227315     0.004505
PT870   PT        0.212640    0.689791    0.228048     0.004505
AU871   AU        0.212119    0.729871    0.265183     0.007504
PT872   PT        0.248328    0.692855    0.265396     0.004505
PT873   PT        0.247816    0.726993    0.226052     0.004505
PT874   PT        0.284875    0.690537    0.226148     0.004505
PT875   PT        0.283668    0.727623    0.264474     0.004505
PT876   PT        0.319686    0.690709    0.267365     0.004505
AU877   AU        0.321729    0.729224    0.227014     0.007504
AU878   AU        0.357053    0.689778    0.228500     0.007504
PT879   PT        0.356086    0.729316    0.264724     0.004505
PT880   PT        0.392354    0.690389    0.265664     0.004505
AU881   AU        0.393258    0.728099    0.227003     0.007504
PT882   PT        0.427445    0.690179    0.227034     0.004505
AU883   AU        0.427789    0.727107    0.265716     0.007504
PT884   PT        0.463197    0.689450    0.263436     0.004505
AU885   AU        0.463543    0.727462    0.226855     0.007504
PT886   PT        0.501263    0.691553    0.226702     0.004505
PT887   PT        0.498373    0.727510    0.267108     0.004505
AU888   AU        0.536590    0.689219    0.265927     0.007504
PT889   PT        0.537931    0.728243    0.228004     0.004505
PT890   PT        0.574609    0.691252    0.226129     0.004505
AU891   AU        0.571308    0.727980    0.265913     0.007504
AU892   AU        0.609280    0.690408    0.265942     0.007504
AU893   AU        0.608431    0.729594    0.227495     0.007504
PT894   PT        0.643115    0.690587    0.225536     0.004505
PT895   PT        0.645509    0.728277    0.269207     0.004505
PT896   PT        0.679390    0.688337    0.266216     0.004505
PT897   PT        0.679182    0.727872    0.231250     0.004505
AU898   AU        0.714464    0.688386    0.228951     0.007504
PT899   PT        0.715394    0.726668    0.268191     0.004505
AU900   AU        0.749928    0.687594    0.266175     0.007504
PT901   PT        0.177781    0.765715    0.266858     0.004505
PT902   PT        0.212344    0.766647    0.230433     0.004505
AU903   AU        0.213397    0.803113    0.266707     0.007504
PT904   PT        0.249570    0.766333    0.264719     0.004505
PT905   PT        0.251185    0.803027    0.227843     0.004505
PT906   PT        0.285004    0.766380    0.226225     0.004505
PT907   PT        0.285604    0.805436    0.264845     0.004505
AU908   AU        0.320446    0.768867    0.264456     0.007504
PT909   PT        0.322354    0.803127    0.225321     0.004505
PT910   PT        0.357151    0.766541    0.228234     0.004505
AU911   AU        0.356707    0.804502    0.265288     0.007504
PT912   PT        0.391588    0.766099    0.264988     0.004505
PT913   PT        0.391593    0.804461    0.227956     0.004505
AU914   AU        0.427082    0.767377    0.227390     0.007504
PT915   PT        0.428215    0.804236    0.266050     0.004505
PT916   PT        0.462896    0.765493    0.264521     0.004505
AU917   AU        0.463544    0.803444    0.228584     0.007504
PT918   PT        0.499577    0.764048    0.228240     0.004505
AU919   AU        0.499408    0.802648    0.265580     0.007504
PT920   PT        0.534853    0.766075    0.264888     0.004505
PT921   PT        0.535193    0.801470    0.227831     0.004505
PT922   PT        0.570976    0.765667    0.228961     0.004505
PT923   PT        0.572131    0.803752    0.265740     0.004505
AU924   AU        0.607658    0.764498    0.266333     0.007504
AU925   AU        0.605953    0.802152    0.228542     0.007504
AU926   AU        0.643544    0.766369    0.230853     0.007504
PT927   PT        0.642182    0.802502    0.267438     0.004505
PT928   PT        0.680140    0.764008    0.268114     0.004505
PT929   PT        0.286786    0.881443    0.268585     0.004505
AU930   AU        0.322446    0.844250    0.265710     0.007504
PT931   PT        0.357674    0.841648    0.228971     0.004505
PT932   PT        0.359187    0.878076    0.268104     0.004505
PT933   PT        0.392779    0.840640    0.266796     0.004505
AU934   AU        0.428225    0.838640    0.229905     0.007504
PT935   PT        0.429238    0.875533    0.267228     0.004505
AU936   AU        0.464112    0.841092    0.266732     0.007504
AU937   AU        0.497760    0.838885    0.229346     0.007504
PT938   PT        0.498594    0.876037    0.269676     0.004505
PT939   PT        0.533021    0.841996    0.266046     0.004505
AU940   AU        0.606864    0.839021    0.268193     0.007504
PT941   PT        0.285790    0.037565    0.343477     0.004505
AU942   AU        0.320748    0.040845    0.304647     0.007504
PT943   PT        0.356592    0.040056    0.344430     0.004505
PT944   PT        0.394555    0.040896    0.305297     0.004505
PT945   PT        0.427420    0.038251    0.344551     0.004505
PT946   PT        0.465344    0.040912    0.305104     0.004505
PT947   PT        0.500582    0.041000    0.343297     0.004505
AU948   AU        0.535722    0.039111    0.305202     0.007504
PT949   PT        0.571888    0.039519    0.344848     0.004505
PT950   PT        0.180459    0.115554    0.303813     0.004505
PT951   PT        0.213198    0.113162    0.342925     0.004505
PT952   PT        0.249855    0.075628    0.344023     0.004505
AU953   AU        0.249381    0.116033    0.304672     0.007504
AU954   AU        0.282884    0.076762    0.304462     0.007504
AU955   AU        0.283829    0.114273    0.343217     0.007504
PT956   PT        0.319836    0.074831    0.344945     0.004505
AU957   AU        0.319384    0.112971    0.306391     0.007504
AU958   AU        0.356741    0.076705    0.306023     0.007504
AU959   AU        0.357774    0.112476    0.343955     0.007504
PT960   PT        0.392830    0.074944    0.343307     0.004505
PT961   PT        0.393470    0.112510    0.306464     0.004505
PT962   PT        0.429255    0.076243    0.304993     0.004505
AU963   AU        0.430380    0.113199    0.344173     0.007504
AU964   AU        0.464663    0.076325    0.345145     0.007504
AU965   AU        0.464633    0.111546    0.304056     0.007504
PT966   PT        0.500575    0.077597    0.304819     0.004505
AU967   AU        0.500493    0.112847    0.344186     0.007504
AU968   AU        0.537480    0.077781    0.342572     0.007504
PT969   PT        0.538210    0.114251    0.303837     0.004505
PT970   PT        0.572991    0.077495    0.306092     0.004505
AU971   AU        0.573424    0.113455    0.345168     0.007504
PT972   PT        0.608066    0.075758    0.344473     0.004505
AU973   AU        0.607054    0.113465    0.304881     0.007504
PT974   PT        0.641811    0.112247    0.342609     0.004505
PT975   PT        0.678969    0.115506    0.305867     0.004505
PT976   PT        0.111435    0.190574    0.304321     0.004505
PT977   PT        0.145509    0.153714    0.306215     0.004505
AU978   AU        0.143683    0.190675    0.345273     0.007504
AU979   AU        0.179480    0.152217    0.344563     0.007504
PT980   PT        0.179381    0.190230    0.304732     0.004505
AU981   AU        0.213520    0.151805    0.306940     0.007504
PT982   PT        0.213146    0.189791    0.345026     0.004505
PT983   PT        0.248159    0.152857    0.342288     0.004505
PT984   PT        0.248009    0.189640    0.305374     0.004505
AU985   AU        0.284689    0.150374    0.303161     0.007504
AU986   AU        0.283141    0.188638    0.342531     0.007504
PT987   PT        0.318971    0.152203    0.342363     0.004505
AU988   AU        0.320909    0.190108    0.303272     0.007504
AU989   AU        0.356265    0.151660    0.304814     0.007504
PT990   PT        0.356527    0.189329    0.343832     0.004505
AU991   AU        0.390914    0.150113    0.343475     0.007504
AU992   AU        0.390317    0.187958    0.304777     0.007504
AU993   AU        0.426469    0.150702    0.304481     0.007504
PT994   PT        0.428286    0.190753    0.339920     0.004505
AU995   AU        0.464975    0.149768    0.340883     0.007504
AU996   AU        0.463786    0.190791    0.303159     0.007504
AU997   AU        0.500807    0.150054    0.305113     0.007504
PT998   PT        0.499540    0.189876    0.340123     0.004505
AU999   AU        0.537497    0.150183    0.344249     0.007504
PT1000   PT        0.539473    0.188174    0.304669     0.004505
AU1001   AU        0.573922    0.152907    0.305232     0.007504
PT1002   PT        0.572578    0.187556    0.345393     0.004505
PT1003   PT        0.608426    0.151005    0.342609     0.004505
AU1004   AU        0.609638    0.189662    0.306143     0.007504
AU1005   AU        0.643658    0.151645    0.305513     0.007504
AU1006   AU        0.646051    0.187421    0.344139     0.007504
AU1007   AU        0.680008    0.152274    0.344118     0.007504
PT1008   PT        0.680663    0.188648    0.306574     0.004505
AU1009   AU        0.713330    0.152136    0.308559     0.007504
AU1010   AU        0.714519    0.190251    0.344194     0.007504
PT1011   PT        0.746832    0.189993    0.305434     0.004505
PT1012   PT        0.073072    0.266507    0.344435     0.004505
PT1013   PT        0.109187    0.229136    0.346063     0.004505
AU1014   AU        0.108574    0.265864    0.304966     0.007504
AU1015   AU        0.143075    0.227490    0.304980     0.007504
AU1016   AU        0.142200    0.266525    0.343138     0.007504
PT1017   PT        0.176344    0.228011    0.344103     0.004505
PT1018   PT        0.177468    0.265687    0.305725     0.004505
PT1019   PT        0.212470    0.227630    0.305513     0.004505
AU1020   AU        0.212363    0.267627    0.341779     0.007504
AU1021   AU        0.246961    0.227585    0.343522     0.007504
AU1022   AU        0.247638    0.266503    0.305139     0.007504
AU1023   AU        0.286289    0.226198    0.303791     0.007504
AU1024   AU        0.283361    0.266737    0.343614     0.007504
AU1025   AU        0.320992    0.226507    0.344294     0.007504
AU1026   AU        0.321918    0.265906    0.306698     0.007504
AU1027   AU        0.358323    0.225254    0.302847     0.007504
AU1028   AU        0.356212    0.264898    0.344736     0.007504
AU1029   AU        0.392139    0.228931    0.343164     0.007504
AU1030   AU        0.393724    0.265211    0.305673     0.007504
AU1031   AU        0.428898    0.229252    0.304102     0.007504
AU1032   AU        0.429848    0.265677    0.342077     0.007504
PT1033   PT        0.464583    0.229794    0.344801     0.004505
AU1034   AU        0.464234    0.268659    0.304101     0.007504
AU1035   AU        0.498735    0.230526    0.305601     0.007504
AU1036   AU        0.500850    0.266459    0.346309     0.007504
AU1037   AU        0.536742    0.227867    0.343947     0.007504
AU1038   AU        0.536167    0.266049    0.304623     0.007504
PT1039   PT        0.574023    0.226816    0.307751     0.004505
AU1040   AU        0.571838    0.266315    0.344066     0.007504
PT1041   PT        0.609136    0.225321    0.344918     0.004505
AU1042   AU        0.608285    0.267859    0.303542     0.007504
AU1043   AU        0.645067    0.225882    0.305056     0.007504
PT1044   PT        0.645265    0.265941    0.343283     0.004505
PT1045   PT        0.680066    0.227020    0.345964     0.004505
PT1046   PT        0.679626    0.265029    0.305725     0.004505
PT1047   PT        0.714013    0.228451    0.306629     0.004505
PT1048   PT        0.714702    0.264204    0.345326     0.004505
PT1049   PT        0.750381    0.229075    0.345405     0.004505
AU1050   AU        0.750560    0.266727    0.305233     0.007504
PT1051   PT        0.783690    0.267483    0.346221     0.004505
AU1052   AU        0.039123    0.305189    0.342152     0.007504
PT1053   PT        0.037045    0.341852    0.305990     0.004505
PT1054   PT        0.073371    0.305727    0.304952     0.004505
PT1055   PT        0.071698    0.346185    0.343863     0.004505
AU1056   AU        0.105833    0.305243    0.344579     0.007504
AU1057   AU        0.107008    0.342477    0.306761     0.007504
PT1058   PT        0.142749    0.304129    0.305024     0.004505
PT1059   PT        0.142150    0.342707    0.344746     0.004505
AU1060   AU        0.177336    0.305419    0.342398     0.007504
AU1061   AU        0.177370    0.342834    0.303694     0.007504
AU1062   AU        0.211609    0.305078    0.305653     0.007504
AU1063   AU        0.212825    0.343241    0.342203     0.007504
AU1064   AU        0.248706    0.304788    0.342308     0.007504
PT1065   PT        0.250388    0.343069    0.304417     0.004505
AU1066   AU        0.283931    0.306165    0.306526     0.007504
AU1067   AU        0.284480    0.342265    0.341649     0.007504
AU1068   AU        0.321072    0.303336    0.344653     0.007504
AU1069   AU        0.320882    0.341650    0.305097     0.007504
AU1070   AU        0.356786    0.304363    0.308126     0.007504
AU1071   AU        0.356215    0.343583    0.341920     0.007504
AU1072   AU        0.393748    0.303232    0.345063     0.007504
AU1073   AU        0.390413    0.342134    0.304056     0.007504
AU1074   AU        0.428035    0.304096    0.304800     0.007504
AU1075   AU        0.427945    0.342230    0.341364     0.007504
AU1076   AU        0.464738    0.304227    0.342805     0.007504
AU1077   AU        0.463344    0.340614    0.304882     0.007504
AU1078   AU        0.500594    0.304697    0.305206     0.007504
AU1079   AU        0.498904    0.343343    0.344080     0.007504
PT1080   PT        0.534508    0.303843    0.341117     0.004505
AU1081   AU        0.536245    0.342561    0.305626     0.007504
AU1082   AU        0.572118    0.304411    0.304797     0.007504
AU1083   AU        0.573344    0.343141    0.345181     0.007504
AU1084   AU        0.609119    0.306135    0.343740     0.007504
AU1085   AU        0.607261    0.342893    0.305142     0.007504
AU1086   AU        0.645532    0.304917    0.304217     0.007504
AU1087   AU        0.644417    0.343343    0.343610     0.007504
PT1088   PT        0.679924    0.303444    0.343897     0.004505
AU1089   AU        0.680183    0.343383    0.304089     0.007504
PT1090   PT        0.715176    0.304262    0.305093     0.004505
PT1091   PT        0.717248    0.344526    0.344201     0.004505
PT1092   PT        0.749744    0.303368    0.343682     0.004505
AU1093   AU        0.749309    0.343796    0.305012     0.007504
AU1094   AU        0.784673    0.305344    0.306153     0.007504
AU1095   AU        0.785065    0.340317    0.344412     0.007504
PT1096   PT        0.820075    0.303807    0.344414     0.004505
PT1097   PT        0.818558    0.343078    0.305270     0.004505
PT1098   PT        0.036885    0.382349    0.343233     0.004505
PT1099   PT        0.039513    0.420370    0.303181     0.004505
PT1100   PT        0.072939    0.382734    0.305961     0.004505
AU1101   AU        0.071942    0.421266    0.344899     0.007504
AU1102   AU        0.105413    0.382000    0.344659     0.007504
PT1103   PT        0.106246    0.421120    0.305316     0.004505
AU1104   AU        0.142537    0.379791    0.304579     0.007504
AU1105   AU        0.139843    0.420391    0.343921     0.007504
PT1106   PT        0.176266    0.381208    0.343466     0.004505
AU1107   AU        0.174711    0.421480    0.304890     0.007504
PT1108   PT        0.212065    0.384200    0.303011     0.004505
PT1109   PT        0.212420    0.420696    0.342705     0.004505
AU1110   AU        0.248733    0.382997    0.341932     0.007504
AU1111   AU        0.248058    0.420871    0.303247     0.007504
AU1112   AU        0.285594    0.380675    0.306433     0.007504
AU1113   AU        0.284597    0.420525    0.344028     0.007504
AU1114   AU        0.320343    0.381747    0.342031     0.007504
AU1115   AU        0.321015    0.419957    0.306383     0.007504
AU1116   AU        0.358689    0.382729    0.305276     0.007504
AU1117   AU        0.356250    0.420517    0.343448     0.007504
AU1118   AU        0.393629    0.381775    0.343676     0.007504
AU1119   AU        0.390842    0.421045    0.305937     0.007504
AU1120   AU        0.426937    0.380582    0.305761     0.007504
AU1121   AU        0.427446    0.420889    0.343566     0.007504
AU1122   AU        0.462578    0.381248    0.343264     0.007504
AU1123   AU        0.462648    0.419702    0.305025     0.007504
PT1124   PT        0.500748    0.379352    0.304734     0.004505
AU1125   AU        0.501600    0.423678    0.346382     0.007504
AU1126   AU        0.539353    0.382060    0.341793     0.007504
AU1127   AU        0.537165    0.420305    0.306387     0.007504
AU1128   AU        0.573389    0.381058    0.305850     0.007504
AU1129   AU        0.572477    0.420770    0.344489     0.007504
AU1130   AU        0.610821    0.381814    0.344612     0.007504
AU1131   AU        0.608723    0.420964    0.306701     0.007504
PT1132   PT        0.644906    0.383123    0.305266     0.004505
AU1133   AU        0.643986    0.420293    0.342903     0.007504
PT1134   PT        0.679661    0.383079    0.344836     0.004505
AU1135   AU        0.679687    0.421047    0.305969     0.007504
PT1136   PT        0.714470    0.382029    0.304921     0.004505
AU1137   AU        0.716167    0.421583    0.344048     0.007504
PT1138   PT        0.752324    0.382337    0.345089     0.004505
PT1139   PT        0.751544    0.420458    0.304870     0.004505
AU1140   AU        0.785243    0.381055    0.306018     0.007504
PT1141   PT        0.786488    0.420658    0.343784     0.004505
AU1142   AU        0.820635    0.379800    0.344134     0.007504
PT1143   PT        0.821357    0.421783    0.303919     0.004505
PT1144   PT        0.038714    0.459594    0.344569     0.004505
PT1145   PT        0.037828    0.498065    0.303301     0.004505
AU1146   AU        0.072240    0.460444    0.303411     0.007504
PT1147   PT        0.070711    0.496811    0.341507     0.004505
AU1148   AU        0.105471    0.459302    0.345659     0.007504
PT1149   PT        0.106692    0.497339    0.303774     0.004505
AU1150   AU        0.140413    0.459964    0.305600     0.007504
AU1151   AU        0.141465    0.498440    0.343340     0.007504
AU1152   AU        0.176082    0.458824    0.343063     0.007504
AU1153   AU        0.177980    0.497734    0.304179     0.007504
AU1154   AU        0.211518    0.458757    0.304814     0.007504
AU1155   AU        0.212005    0.496234    0.342262     0.007504
AU1156   AU        0.247818    0.460722    0.346877     0.007504
PT1157   PT        0.248286    0.497159    0.305614     0.004505
PT1158   PT        0.283698    0.457092    0.307033     0.004505
AU1159   AU        0.283557    0.496827    0.343930     0.007504
AU1160   AU        0.320549    0.457296    0.341667     0.007504
AU1161   AU        0.318891    0.497557    0.304212     0.007504
PT1162   PT        0.356204    0.458823    0.304365     0.004505
AU1163   AU        0.355906    0.496240    0.342981     0.007504
AU1164   AU        0.392841    0.460311    0.343852     0.007504
AU1165   AU        0.392652    0.498865    0.308116     0.007504
AU1166   AU        0.427093    0.460142    0.305176     0.007504
AU1167   AU        0.428403    0.495689    0.345831     0.007504
AU1168   AU        0.464700    0.457723    0.342905     0.007504
AU1169   AU        0.463243    0.498345    0.305196     0.007504
AU1170   AU        0.500037    0.457317    0.305429     0.007504
AU1171   AU        0.502657    0.497335    0.343351     0.007504
AU1172   AU        0.536583    0.460775    0.345406     0.007504
AU1173   AU        0.537501    0.496878    0.305018     0.007504
AU1174   AU        0.573460    0.460523    0.305789     0.007504
AU1175   AU        0.573151    0.497881    0.342939     0.007504
AU1176   AU        0.611018    0.460135    0.344395     0.007504
AU1177   AU        0.608366    0.496754    0.305553     0.007504
AU1178   AU        0.643909    0.461592    0.305356     0.007504
PT1179   PT        0.647532    0.498580    0.344173     0.004505
AU1180   AU        0.679942    0.459819    0.344222     0.007504
PT1181   PT        0.681457    0.497184    0.305426     0.004505
PT1182   PT        0.716588    0.458566    0.304996     0.004505
PT1183   PT        0.715963    0.498297    0.342366     0.004505
AU1184   AU        0.750785    0.458474    0.345081     0.007504
AU1185   AU        0.752663    0.494701    0.303628     0.007504
PT1186   PT        0.785905    0.458920    0.304251     0.004505
AU1187   AU        0.787156    0.497186    0.342003     0.007504
PT1188   PT        0.818815    0.458307    0.344010     0.004505
AU1189   AU        0.819464    0.496684    0.302162     0.007504
PT1190   PT        0.037175    0.534286    0.343133     0.004505
PT1191   PT        0.037831    0.575226    0.304113     0.004505
AU1192   AU        0.071328    0.535294    0.305875     0.007504
PT1193   PT        0.071227    0.574729    0.343758     0.004505
AU1194   AU        0.105729    0.536821    0.343137     0.007504
AU1195   AU        0.106072    0.574493    0.305034     0.007504
PT1196   PT        0.141909    0.536487    0.305559     0.004505
AU1197   AU        0.142413    0.574790    0.343296     0.007504
AU1198   AU        0.178184    0.535496    0.341447     0.007504
AU1199   AU        0.176881    0.576132    0.303964     0.007504
PT1200   PT        0.211153    0.537413    0.303792     0.004505
AU1201   AU        0.211097    0.575478    0.342269     0.007504
PT1202   PT        0.246277    0.536448    0.346004     0.004505
PT1203   PT        0.246108    0.575365    0.304558     0.004505
AU1204   AU        0.282470    0.537071    0.307009     0.007504
AU1205   AU        0.282898    0.575247    0.343310     0.007504
AU1206   AU        0.319644    0.533826    0.344204     0.007504
AU1207   AU        0.321020    0.574723    0.304622     0.007504
AU1208   AU        0.355907    0.535883    0.306322     0.007504
AU1209   AU        0.355535    0.572575    0.344052     0.007504
PT1210   PT        0.393248    0.538363    0.345137     0.004505
PT1211   PT        0.392078    0.574428    0.303940     0.004505
PT1212   PT        0.428937    0.536873    0.305767     0.004505
AU1213   AU        0.427357    0.575202    0.344201     0.007504
AU1214   AU        0.464451    0.536728    0.344212     0.007504
PT1215   PT        0.461822    0.577060    0.308708     0.004505
AU1216   AU        0.503390    0.532972    0.304429     0.007504
AU1217   AU        0.500716    0.573140    0.341442     0.007504
AU1218   AU        0.536788    0.535450    0.344291     0.007504
PT1219   PT        0.536882    0.570614    0.306042     0.004505
AU1220   AU        0.573321    0.535150    0.306083     0.007504
AU1221   AU        0.574143    0.574860    0.345109     0.007504
AU1222   AU        0.610185    0.534722    0.344105     0.007504
AU1223   AU        0.609140    0.574074    0.305546     0.007504
PT1224   PT        0.645713    0.533346    0.304154     0.004505
PT1225   PT        0.645199    0.575083    0.343216     0.004505
PT1226   PT        0.681148    0.539295    0.343252     0.004505
PT1227   PT        0.677759    0.574741    0.304663     0.004505
PT1228   PT        0.712847    0.537524    0.302453     0.004505
AU1229   AU        0.715810    0.574522    0.341817     0.007504
PT1230   PT        0.751748    0.539652    0.346818     0.004505
PT1231   PT        0.751412    0.574502    0.306053     0.004505
AU1232   AU        0.784899    0.537142    0.304844     0.007504
PT1233   PT        0.784939    0.576290    0.342972     0.004505
PT1234   PT        0.818589    0.535550    0.342230     0.004505
PT1235   PT        0.819830    0.575951    0.306117     0.004505
PT1236   PT        0.037284    0.612661    0.343269     0.004505
PT1237   PT        0.073201    0.613285    0.304833     0.004505
PT1238   PT        0.072470    0.651505    0.344515     0.004505
PT1239   PT        0.108004    0.612768    0.343513     0.004505
PT1240   PT        0.107357    0.651735    0.305741     0.004505
AU1241   AU        0.140953    0.612580    0.305407     0.007504
AU1242   AU        0.139760    0.652503    0.343149     0.007504
PT1243   PT        0.177650    0.614023    0.342096     0.004505
AU1244   AU        0.174555    0.651825    0.304742     0.007504
AU1245   AU        0.211513    0.612600    0.303324     0.007504
AU1246   AU        0.212913    0.650797    0.342240     0.007504
PT1247   PT        0.248782    0.611640    0.341849     0.004505
AU1248   AU        0.246849    0.652013    0.303649     0.007504
PT1249   PT        0.283149    0.613247    0.304448     0.004505
AU1250   AU        0.284046    0.653487    0.341794     0.007504
AU1251   AU        0.318084    0.612993    0.341756     0.007504
AU1252   AU        0.318108    0.654027    0.304192     0.007504
AU1253   AU        0.355352    0.613924    0.304662     0.007504
AU1254   AU        0.354692    0.652672    0.342781     0.007504
AU1255   AU        0.391546    0.612106    0.345642     0.007504
PT1256   PT        0.392141    0.651894    0.307799     0.004505
AU1257   AU        0.425409    0.612214    0.304301     0.007504
AU1258   AU        0.428128    0.652349    0.341939     0.007504
PT1259   PT        0.463647    0.613984    0.346183     0.004505
AU1260   AU        0.464526    0.652767    0.305203     0.007504
PT1261   PT        0.498105    0.616482    0.307446     0.004505
AU1262   AU        0.497921    0.652121    0.347149     0.007504
AU1263   AU        0.537971    0.609977    0.341443     0.007504
AU1264   AU        0.540822    0.650081    0.305461     0.007504
PT1265   PT        0.574882    0.610571    0.304783     0.004505
AU1266   AU        0.574306    0.652382    0.342057     0.007504
AU1267   AU        0.609297    0.614273    0.342439     0.007504
AU1268   AU        0.610785    0.653413    0.303857     0.007504
AU1269   AU        0.643391    0.613492    0.303896     0.007504
PT1270   PT        0.644077    0.652402    0.342948     0.004505
AU1271   AU        0.682505    0.614593    0.344931     0.007504
AU1272   AU        0.680356    0.652152    0.306490     0.007504
AU1273   AU        0.714388    0.612756    0.305564     0.007504
PT1274   PT        0.715631    0.654057    0.345441     0.004505
PT1275   PT        0.749899    0.612911    0.344027     0.004505
PT1276   PT        0.749416    0.650232    0.306064     0.004505
AU1277   AU        0.784369    0.612514    0.304824     0.007504
AU1278   AU        0.784457    0.650919    0.346478     0.007504
PT1279   PT        0.820127    0.615258    0.344145     0.004505
PT1280   PT        0.106961    0.689060    0.343453     0.004505
PT1281   PT        0.108448    0.726403    0.305172     0.004505
PT1282   PT        0.142326    0.690859    0.303442     0.004505
PT1283   PT        0.142655    0.727341    0.342500     0.004505
AU1284   AU        0.176648    0.691336    0.343574     0.007504
PT1285   PT        0.178826    0.729259    0.303268     0.004505
AU1286   AU        0.212729    0.692153    0.303813     0.007504
AU1287   AU        0.213416    0.729153    0.342156     0.007504
PT1288   PT        0.248755    0.691490    0.343599     0.004505
AU1289   AU        0.248919    0.728761    0.301360     0.007504
AU1290   AU        0.283628    0.690948    0.304229     0.007504
AU1291   AU        0.283559    0.730727    0.340258     0.007504
AU1292   AU        0.321034    0.690954    0.342583     0.007504
PT1293   PT        0.319265    0.730014    0.301029     0.004505
PT1294   PT        0.355509    0.691107    0.305329     0.004505
PT1295   PT        0.354876    0.729658    0.341621     0.004505
AU1296   AU        0.390083    0.690028    0.343148     0.007504
AU1297   AU        0.391876    0.728618    0.304666     0.007504
PT1298   PT        0.427981    0.692123    0.304398     0.004505
AU1299   AU        0.429055    0.726664    0.342963     0.007504
AU1300   AU        0.465688    0.691145    0.343593     0.007504
AU1301   AU        0.463838    0.727573    0.305365     0.007504
PT1302   PT        0.503424    0.689138    0.304787     0.004505
PT1303   PT        0.501871    0.729206    0.344103     0.004505
PT1304   PT        0.539802    0.690776    0.342725     0.004505
PT1305   PT        0.538359    0.729106    0.305293     0.004505
PT1306   PT        0.574038    0.689815    0.302474     0.004505
PT1307   PT        0.574182    0.731053    0.343575     0.004505
PT1308   PT        0.609678    0.690922    0.343261     0.004505
AU1309   AU        0.608650    0.728965    0.306198     0.007504
AU1310   AU        0.646979    0.691965    0.307486     0.007504
AU1311   AU        0.646695    0.729492    0.344519     0.007504
AU1312   AU        0.681957    0.692146    0.343846     0.007504
AU1313   AU        0.680657    0.728741    0.306804     0.007504
PT1314   PT        0.714360    0.690776    0.306598     0.004505
PT1315   PT        0.715691    0.728224    0.345613     0.004505
PT1316   PT        0.749882    0.689061    0.346635     0.004505
PT1317   PT        0.749847    0.806999    0.299797     0.004505
PT1318   PT        0.142251    0.764160    0.303820     0.004505
AU1319   AU        0.177294    0.764609    0.341987     0.007504
PT1320   PT        0.177949    0.801694    0.304190     0.004505
PT1321   PT        0.214788    0.766145    0.302304     0.004505
AU1322   AU        0.214757    0.804679    0.342699     0.007504
AU1323   AU        0.249464    0.766913    0.341144     0.007504
AU1324   AU        0.249386    0.804472    0.304234     0.007504
PT1325   PT        0.285844    0.768538    0.302447     0.004505
PT1326   PT        0.286253    0.806112    0.341576     0.004505
PT1327   PT        0.322098    0.768989    0.339533     0.004505
PT1328   PT        0.320727    0.806348    0.303268     0.004505
AU1329   AU        0.355394    0.767885    0.302750     0.007504
PT1330   PT        0.356399    0.807004    0.341774     0.004505
AU1331   AU        0.388093    0.768986    0.342917     0.007504
PT1332   PT        0.391589    0.803656    0.303021     0.004505
PT1333   PT        0.427073    0.766088    0.304759     0.004505
AU1334   AU        0.426923    0.804029    0.341161     0.007504
AU1335   AU        0.462096    0.765252    0.342736     0.007504
PT1336   PT        0.463370    0.802983    0.304642     0.004505
PT1337   PT        0.500604    0.766780    0.305042     0.004505
AU1338   AU        0.501142    0.802839    0.344536     0.007504
AU1339   AU        0.536881    0.767172    0.342169     0.007504
PT1340   PT        0.535981    0.803610    0.305505     0.004505
AU1341   AU        0.571923    0.767512    0.304217     0.007504
AU1342   AU        0.573285    0.803023    0.343287     0.007504
AU1343   AU        0.609016    0.767674    0.344220     0.007504
PT1344   PT        0.608449    0.802480    0.307281     0.004505
AU1345   AU        0.645982    0.764440    0.304629     0.007504
PT1346   PT        0.644782    0.803604    0.344102     0.004505
PT1347   PT        0.680845    0.767251    0.345310     0.004505
AU1348   AU        0.679154    0.802836    0.304637     0.007504
PT1349   PT        0.713987    0.766709    0.305642     0.004505
PT1350   PT        0.251072    0.842854    0.342850     0.004505
PT1351   PT        0.287827    0.843097    0.305072     0.004505
PT1352   PT        0.286451    0.880269    0.346135     0.004505
PT1353   PT        0.321083    0.843011    0.343202     0.004505
PT1354   PT        0.321659    0.878896    0.305449     0.004505
AU1355   AU        0.357440    0.843542    0.303780     0.007504
AU1356   AU        0.357469    0.879228    0.342556     0.007504
AU1357   AU        0.391511    0.842620    0.343229     0.007504
PT1358   PT        0.396085    0.877647    0.304815     0.004505
AU1359   AU        0.428386    0.839836    0.304389     0.007504
PT1360   PT        0.430237    0.874862    0.344682     0.004505
AU1361   AU        0.465601    0.839474    0.344055     0.007504
PT1362   PT        0.465362    0.875528    0.306525     0.004505
AU1363   AU        0.500762    0.839556    0.305272     0.007504
PT1364   PT        0.499816    0.873794    0.344685     0.004505
PT1365   PT        0.536699    0.837157    0.344377     0.004505
PT1366   PT        0.535289    0.873886    0.308479     0.004505
PT1367   PT        0.571805    0.839156    0.304702     0.004505
PT1368   PT        0.569992    0.874248    0.343650     0.004505
PT1369   PT        0.607699    0.841322    0.345408     0.004505
PT1370   PT        0.251741    0.039242    0.381627     0.004505
PT1371   PT        0.284173    0.040282    0.421357     0.004505
AU1372   AU        0.321473    0.038849    0.383069     0.007504
AU1373   AU        0.358004    0.038329    0.422462     0.007504
AU1374   AU        0.393710    0.002019    0.420535     0.007504
PT1375   PT        0.392173    0.038889    0.383333     0.004505
PT1376   PT        0.430306    0.002564    0.384923     0.004505
AU1377   AU        0.429679    0.038796    0.421777     0.007504
AU1378   AU        0.464255    0.001403    0.423696     0.007504
PT1379   PT        0.465731    0.038340    0.384799     0.004505
PT1380   PT        0.500107    0.038857    0.420656     0.004505
AU1381   AU        0.537582    0.039087    0.380206     0.007504
AU1382   AU        0.572589    0.039643    0.421580     0.007504
PT1383   PT        0.606572    0.039208    0.382992     0.004505
PT1384   PT        0.144424    0.114696    0.420423     0.004505
AU1385   AU        0.179811    0.077540    0.419508     0.007504
PT1386   PT        0.180167    0.114901    0.381665     0.004505
PT1387   PT        0.213885    0.077003    0.381537     0.004505
AU1388   AU        0.213719    0.115606    0.421644     0.007504
AU1389   AU        0.247804    0.076542    0.421491     0.007504
AU1390   AU        0.247954    0.113195    0.380614     0.007504
AU1391   AU        0.285627    0.075703    0.382081     0.007504
AU1392   AU        0.284385    0.112235    0.420323     0.007504
PT1393   PT        0.320952    0.074928    0.419801     0.004505
AU1394   AU        0.321185    0.112865    0.381317     0.007504
AU1395   AU        0.355999    0.075093    0.383424     0.007504
AU1396   AU        0.356799    0.112552    0.421456     0.007504
PT1397   PT        0.392618    0.074206    0.420014     0.004505
PT1398   PT        0.392223    0.111743    0.382168     0.004505
PT1399   PT        0.428147    0.075314    0.383146     0.004505
AU1400   AU        0.427258    0.112745    0.423825     0.007504
PT1401   PT        0.464264    0.076169    0.420472     0.004505
PT1402   PT        0.465724    0.114578    0.383050     0.004505
AU1403   AU        0.501108    0.076029    0.382912     0.007504
AU1404   AU        0.501194    0.112996    0.421413     0.007504
PT1405   PT        0.537626    0.074960    0.421257     0.004505
PT1406   PT        0.536956    0.111965    0.383390     0.004505
AU1407   AU        0.571564    0.076969    0.382281     0.007504
AU1408   AU        0.573419    0.113137    0.421037     0.007504
PT1409   PT        0.607979    0.076181    0.421151     0.004505
PT1410   PT        0.608187    0.113612    0.383476     0.004505
AU1411   AU        0.641537    0.075583    0.380950     0.007504
PT1412   PT        0.644213    0.113449    0.421354     0.004505
PT1413   PT        0.677450    0.073513    0.423401     0.004505
PT1414   PT        0.679671    0.076964    0.344097     0.004505
PT1415   PT        0.711698    0.113725    0.422822     0.004505
PT1416   PT        0.073821    0.192166    0.422099     0.004505
PT1417   PT        0.108571    0.153707    0.419866     0.004505
PT1418   PT        0.107056    0.192070    0.385416     0.004505
PT1419   PT        0.144323    0.152814    0.383072     0.004505
AU1420   AU        0.142768    0.190127    0.420310     0.007504
PT1421   PT        0.177583    0.152377    0.420642     0.004505
PT1422   PT        0.177979    0.188738    0.382752     0.004505
PT1423   PT        0.213676    0.151824    0.382195     0.004505
AU1424   AU        0.212049    0.190094    0.420774     0.007504
PT1425   PT        0.248080    0.152578    0.420092     0.004505
PT1426   PT        0.248937    0.191766    0.382469     0.004505
PT1427   PT        0.281893    0.148780    0.382193     0.004505
PT1428   PT        0.285322    0.188077    0.418044     0.004505
PT1429   PT        0.321431    0.151152    0.421612     0.004505
AU1430   AU        0.319735    0.187639    0.379556     0.007504
AU1431   AU        0.355786    0.150891    0.384478     0.007504
AU1432   AU        0.356290    0.190525    0.421491     0.007504
PT1433   PT        0.392296    0.151471    0.420176     0.004505
PT1434   PT        0.393287    0.188898    0.379412     0.004505
AU1435   AU        0.429728    0.150175    0.382787     0.007504
AU1436   AU        0.428638    0.189199    0.421895     0.007504
AU1437   AU        0.466185    0.150827    0.419365     0.007504
PT1438   PT        0.465860    0.188376    0.381057     0.004505
PT1439   PT        0.502663    0.150457    0.380619     0.004505
AU1440   AU        0.499803    0.190610    0.419471     0.007504
AU1441   AU        0.537896    0.148969    0.421465     0.007504
AU1442   AU        0.535923    0.190450    0.382567     0.007504
AU1443   AU        0.573708    0.149017    0.382186     0.007504
PT1444   PT        0.574295    0.188176    0.420631     0.004505
AU1445   AU        0.609274    0.151798    0.421252     0.007504
PT1446   PT        0.608392    0.187396    0.382175     0.004505
AU1447   AU        0.643413    0.150574    0.381553     0.007504
AU1448   AU        0.643741    0.188002    0.419406     0.007504
PT1449   PT        0.678722    0.152408    0.422442     0.004505
AU1450   AU        0.680115    0.188203    0.383215     0.007504
AU1451   AU        0.714297    0.153858    0.384798     0.007504
PT1452   PT        0.714337    0.190514    0.422962     0.004505
AU1453   AU        0.750041    0.152985    0.419428     0.007504
PT1454   PT        0.749804    0.192246    0.382795     0.004505
PT1455   PT        0.785370    0.190317    0.421529     0.004505
PT1456   PT        0.037429    0.265090    0.382588     0.004505
PT1457   PT        0.072514    0.230351    0.384977     0.004505
AU1458   AU        0.071977    0.266732    0.422986     0.007504
AU1459   AU        0.108019    0.230117    0.422545     0.007504
PT1460   PT        0.107307    0.265247    0.381789     0.004505
AU1461   AU        0.141928    0.227775    0.385254     0.007504
PT1462   PT        0.143413    0.266469    0.421045     0.004505
AU1463   AU        0.177575    0.228235    0.422067     0.007504
AU1464   AU        0.176979    0.265432    0.382588     0.007504
AU1465   AU        0.213999    0.229430    0.382862     0.007504
PT1466   PT        0.212447    0.265038    0.422078     0.004505
AU1467   AU        0.249420    0.230165    0.421316     0.007504
AU1468   AU        0.248374    0.266406    0.381325     0.007504
AU1469   AU        0.285441    0.227477    0.380722     0.007504
PT1470   PT        0.286425    0.266113    0.419650     0.004505
AU1471   AU        0.321175    0.227449    0.421716     0.007504
PT1472   PT        0.321856    0.267976    0.382582     0.004505
AU1473   AU        0.355347    0.228257    0.383411     0.007504
AU1474   AU        0.355512    0.267045    0.419938     0.007504
AU1475   AU        0.392110    0.229305    0.423587     0.007504
PT1476   PT        0.393981    0.266022    0.384183     0.004505
AU1477   AU        0.427189    0.229461    0.380021     0.007504
PT1478   PT        0.428304    0.265852    0.420077     0.004505
AU1479   AU        0.463040    0.230155    0.418979     0.007504
AU1480   AU        0.462133    0.269000    0.382164     0.007504
AU1481   AU        0.501479    0.226790    0.381878     0.007504
PT1482   PT        0.498437    0.266662    0.419709     0.004505
AU1483   AU        0.536038    0.228275    0.420358     0.007504
AU1484   AU        0.535406    0.267844    0.383521     0.007504
AU1485   AU        0.572612    0.228761    0.382592     0.007504
AU1486   AU        0.572290    0.266227    0.422797     0.007504
PT1487   PT        0.609282    0.228941    0.422180     0.004505
PT1488   PT        0.611809    0.267153    0.383562     0.004505
PT1489   PT        0.645192    0.226805    0.382668     0.004505
PT1490   PT        0.645595    0.268221    0.423490     0.004505
AU1491   AU        0.677507    0.227310    0.420707     0.007504
AU1492   AU        0.679797    0.265415    0.382785     0.007504
PT1493   PT        0.714444    0.227932    0.383649     0.004505
AU1494   AU        0.716036    0.267248    0.420526     0.007504
AU1495   AU        0.750810    0.228484    0.421836     0.007504
PT1496   PT        0.749769    0.265514    0.383082     0.004505
PT1497   PT        0.785623    0.231346    0.385360     0.004505
AU1498   AU        0.786018    0.266950    0.421260     0.007504
PT1499   PT        0.820903    0.267803    0.383594     0.004505
PT1500   PT        0.037268    0.305514    0.420267     0.004505
PT1501   PT        0.039346    0.342934    0.382461     0.004505
PT1502   PT        0.072150    0.304254    0.382579     0.004505
AU1503   AU        0.072775    0.342845    0.422172     0.007504
AU1504   AU        0.106645    0.304163    0.419382     0.007504
PT1505   PT        0.106884    0.343138    0.382586     0.004505
AU1506   AU        0.139529    0.304931    0.383076     0.007504
AU1507   AU        0.140195    0.344788    0.420027     0.007504
PT1508   PT        0.176903    0.307280    0.419361     0.004505
AU1509   AU        0.175879    0.344047    0.382440     0.007504
AU1510   AU        0.213569    0.305536    0.380879     0.007504
PT1511   PT        0.214692    0.345458    0.421024     0.004505
AU1512   AU        0.247710    0.304636    0.418763     0.007504
AU1513   AU        0.248252    0.343051    0.379691     0.007504
AU1514   AU        0.284672    0.306549    0.383050     0.007504
AU1515   AU        0.285224    0.343408    0.421594     0.007504
AU1516   AU        0.320329    0.305976    0.420069     0.007504
AU1517   AU        0.322491    0.341655    0.382650     0.007504
PT1518   PT        0.358255    0.305026    0.382113     0.004505
AU1519   AU        0.358139    0.344022    0.421168     0.007504
AU1520   AU        0.392558    0.303802    0.420506     0.007504
AU1521   AU        0.390981    0.342689    0.380554     0.007504
AU1522   AU        0.427182    0.303743    0.381665     0.007504
AU1523   AU        0.427036    0.342437    0.420404     0.007504
AU1524   AU        0.462966    0.303902    0.419888     0.007504
AU1525   AU        0.463053    0.340963    0.382810     0.007504
AU1526   AU        0.501176    0.305294    0.381379     0.007504
AU1527   AU        0.499038    0.341394    0.420320     0.007504
AU1528   AU        0.535927    0.303282    0.422999     0.007504
AU1529   AU        0.535710    0.342027    0.382635     0.007504
AU1530   AU        0.573492    0.305484    0.380834     0.007504
AU1531   AU        0.572603    0.343456    0.422090     0.007504
PT1532   PT        0.608057    0.305103    0.420778     0.004505
AU1533   AU        0.609340    0.345800    0.383930     0.007504
AU1534   AU        0.646194    0.302402    0.383152     0.007504
AU1535   AU        0.643730    0.341138    0.419586     0.007504
AU1536   AU        0.681598    0.305180    0.420886     0.007504
PT1537   PT        0.680634    0.343782    0.383470     0.004505
AU1538   AU        0.716694    0.305314    0.383277     0.007504
PT1539   PT        0.717686    0.341083    0.420481     0.004505
AU1540   AU        0.750702    0.303758    0.419243     0.007504
AU1541   AU        0.750847    0.343223    0.381800     0.007504
PT1542   PT        0.786126    0.304361    0.383142     0.004505
PT1543   PT        0.785218    0.341921    0.421578     0.004505
AU1544   AU        0.819238    0.304528    0.422766     0.007504
PT1545   PT        0.818267    0.343113    0.384223     0.004505
AU1546   AU        0.000714    0.423341    0.421620     0.007504
PT1547   PT        0.036245    0.383875    0.422590     0.004505
PT1548   PT        0.038059    0.421608    0.383140     0.004505
AU1549   AU        0.072009    0.381213    0.382705     0.007504
AU1550   AU        0.071080    0.420746    0.421585     0.007504
AU1551   AU        0.105770    0.381355    0.420662     0.007504
AU1552   AU        0.106076    0.420408    0.384349     0.007504
PT1553   PT        0.138759    0.383567    0.384037     0.004505
AU1554   AU        0.141027    0.422296    0.421115     0.007504
AU1555   AU        0.178355    0.380487    0.421007     0.007504
AU1556   AU        0.177770    0.419938    0.381488     0.007504
AU1557   AU        0.213293    0.380683    0.379884     0.007504
AU1558   AU        0.212985    0.421544    0.421589     0.007504
AU1559   AU        0.249880    0.379523    0.420664     0.007504
AU1560   AU        0.248148    0.419791    0.382688     0.007504
AU1561   AU        0.282672    0.381816    0.381479     0.007504
AU1562   AU        0.285441    0.421078    0.420698     0.007504
AU1563   AU        0.321202    0.382637    0.420883     0.007504
AU1564   AU        0.322774    0.420838    0.383357     0.007504
AU1565   AU        0.356992    0.380847    0.383556     0.007504
AU1566   AU        0.357528    0.419371    0.420247     0.007504
AU1567   AU        0.391794    0.381095    0.421288     0.007504
AU1568   AU        0.391798    0.419921    0.381137     0.007504
AU1569   AU        0.428163    0.381959    0.380779     0.007504
AU1570   AU        0.427108    0.419997    0.421997     0.007504
AU1571   AU        0.463116    0.382512    0.420875     0.007504
AU1572   AU        0.462864    0.420354    0.382241     0.007504
AU1573   AU        0.499610    0.379969    0.384484     0.007504
AU1574   AU        0.501916    0.420643    0.419543     0.007504
AU1575   AU        0.535881    0.380229    0.420241     0.007504
AU1576   AU        0.536558    0.421392    0.384383     0.007504
AU1577   AU        0.572220    0.382576    0.382108     0.007504
AU1578   AU        0.570994    0.419545    0.419629     0.007504
AU1579   AU        0.607094    0.383833    0.421345     0.007504
AU1580   AU        0.606697    0.420036    0.382443     0.007504
AU1581   AU        0.645103    0.382866    0.382106     0.007504
PT1582   PT        0.643478    0.420350    0.420160     0.004505
PT1583   PT        0.682055    0.381510    0.421218     0.004505
PT1584   PT        0.682100    0.421789    0.382897     0.004505
PT1585   PT        0.715230    0.381298    0.381567     0.004505
AU1586   AU        0.715453    0.420225    0.421407     0.007504
PT1587   PT        0.751311    0.382568    0.418001     0.004505
AU1588   AU        0.750915    0.419626    0.382127     0.007504
AU1589   AU        0.785652    0.381222    0.382483     0.007504
PT1590   PT        0.785856    0.420562    0.420901     0.004505
PT1591   PT        0.821078    0.382566    0.422915     0.004505
AU1592   AU        0.821250    0.420147    0.382399     0.007504
AU1593   AU        0.856211    0.420861    0.421870     0.007504
AU1594   AU        0.002459    0.460192    0.383410     0.007504
PT1595   PT        0.001984    0.498134    0.420761     0.004505
AU1596   AU        0.035741    0.459965    0.420792     0.007504
AU1597   AU        0.035225    0.499418    0.383420     0.007504
PT1598   PT        0.071416    0.460934    0.382664     0.004505
AU1599   AU        0.069895    0.497002    0.419528     0.007504
AU1600   AU        0.105480    0.460895    0.418476     0.007504
AU1601   AU        0.106819    0.500167    0.382110     0.007504
AU1602   AU        0.141588    0.462980    0.382791     0.007504
AU1603   AU        0.142500    0.499089    0.421122     0.007504
PT1604   PT        0.178155    0.459938    0.420745     0.004505
AU1605   AU        0.177531    0.500465    0.380139     0.007504
PT1606   PT        0.211511    0.457946    0.380952     0.004505
PT1607   PT        0.210938    0.499426    0.421058     0.004505
AU1608   AU        0.246039    0.462151    0.421276     0.007504
AU1609   AU        0.246529    0.498669    0.384868     0.007504
AU1610   AU        0.285647    0.459901    0.382701     0.007504
AU1611   AU        0.283663    0.497065    0.421112     0.007504
AU1612   AU        0.320692    0.457041    0.421588     0.007504
AU1613   AU        0.319986    0.498167    0.383588     0.007504
AU1614   AU        0.357876    0.459176    0.382410     0.007504
AU1615   AU        0.356375    0.498051    0.420214     0.007504
AU1616   AU        0.391919    0.460405    0.419050     0.007504
AU1617   AU        0.391120    0.500252    0.382158     0.007504
AU1618   AU        0.428119    0.457802    0.382448     0.007504
AU1619   AU        0.427580    0.496726    0.422347     0.007504
PT1620   PT        0.464011    0.460618    0.421278     0.004505
AU1621   AU        0.465551    0.498070    0.382691     0.007504
AU1622   AU        0.501232    0.461279    0.382856     0.007504
AU1623   AU        0.499040    0.498536    0.419890     0.007504
AU1624   AU        0.535022    0.459889    0.421894     0.007504
AU1625   AU        0.535925    0.499174    0.382076     0.007504
AU1626   AU        0.573725    0.459598    0.381000     0.007504
AU1627   AU        0.572329    0.498067    0.421700     0.007504
AU1628   AU        0.607245    0.458178    0.420878     0.007504
AU1629   AU        0.608911    0.497327    0.380642     0.007504
AU1630   AU        0.645588    0.458849    0.382467     0.007504
AU1631   AU        0.643873    0.497077    0.418846     0.007504
PT1632   PT        0.679422    0.458009    0.421975     0.004505
PT1633   PT        0.680619    0.498557    0.382499     0.004505
AU1634   AU        0.716689    0.459414    0.383121     0.007504
PT1635   PT        0.714841    0.498743    0.419301     0.004505
PT1636   PT        0.752125    0.462111    0.419963     0.004505
PT1637   PT        0.752554    0.498073    0.380845     0.004505
AU1638   AU        0.786469    0.458241    0.382508     0.007504
AU1639   AU        0.785716    0.498898    0.423058     0.007504
PT1640   PT        0.820783    0.459029    0.419831     0.004505
PT1641   PT        0.819957    0.498579    0.383624     0.004505
PT1642   PT        0.854416    0.459285    0.383471     0.004505
PT1643   PT        0.856382    0.497005    0.421443     0.004505
AU1644   AU        0.036974    0.536314    0.420949     0.007504
PT1645   PT        0.038047    0.575510    0.381423     0.004505
PT1646   PT        0.070114    0.535935    0.380495     0.004505
AU1647   AU        0.068661    0.576526    0.421363     0.007504
AU1648   AU        0.105068    0.536940    0.419307     0.007504
PT1649   PT        0.104559    0.573354    0.382511     0.004505
AU1650   AU        0.140611    0.537044    0.382871     0.007504
PT1651   PT        0.142200    0.573200    0.420659     0.004505
PT1652   PT        0.175719    0.537423    0.420333     0.004505
AU1653   AU        0.175628    0.572725    0.380458     0.007504
AU1654   AU        0.212996    0.536079    0.381814     0.007504
PT1655   PT        0.211891    0.572589    0.420933     0.004505
AU1656   AU        0.247345    0.536766    0.422023     0.007504
AU1657   AU        0.249483    0.573790    0.383663     0.007504
AU1658   AU        0.282754    0.536109    0.382955     0.007504
AU1659   AU        0.285412    0.574339    0.420755     0.007504
AU1660   AU        0.320143    0.536709    0.421232     0.007504
AU1661   AU        0.320072    0.576964    0.382218     0.007504
AU1662   AU        0.356393    0.535848    0.382812     0.007504
AU1663   AU        0.354596    0.575162    0.422024     0.007504
AU1664   AU        0.392851    0.535302    0.421423     0.007504
AU1665   AU        0.391867    0.573492    0.384360     0.007504
AU1666   AU        0.430589    0.535601    0.381459     0.007504
AU1667   AU        0.427674    0.576445    0.420536     0.007504
AU1668   AU        0.465012    0.537747    0.421234     0.007504
AU1669   AU        0.464052    0.575296    0.382290     0.007504
AU1670   AU        0.499693    0.536832    0.381204     0.007504
PT1671   PT        0.501316    0.574407    0.424461     0.004505
AU1672   AU        0.535650    0.535217    0.423437     0.007504
AU1673   AU        0.537400    0.575594    0.382656     0.007504
AU1674   AU        0.573982    0.537301    0.383238     0.007504
AU1675   AU        0.572269    0.574949    0.422219     0.007504
PT1676   PT        0.609393    0.535088    0.417732     0.004505
AU1677   AU        0.610680    0.574920    0.381468     0.007504
PT1678   PT        0.645580    0.536207    0.380410     0.004505
AU1679   AU        0.643980    0.573736    0.420307     0.007504
AU1680   AU        0.680960    0.536361    0.420367     0.007504
PT1681   PT        0.681008    0.576543    0.384058     0.004505
AU1682   AU        0.715259    0.538743    0.381956     0.007504
AU1683   AU        0.715221    0.576679    0.421548     0.007504
AU1684   AU        0.751803    0.537343    0.420647     0.007504
AU1685   AU        0.751207    0.576868    0.382913     0.007504
PT1686   PT        0.786488    0.540368    0.382992     0.004505
AU1687   AU        0.786767    0.575679    0.421850     0.007504
PT1688   PT        0.822072    0.534571    0.423079     0.004505
PT1689   PT        0.819123    0.577132    0.381249     0.004505
PT1690   PT        0.036959    0.615793    0.419360     0.004505
PT1691   PT        0.038531    0.654492    0.380753     0.004505
AU1692   AU        0.072126    0.614659    0.382104     0.007504
AU1693   AU        0.070547    0.652063    0.419894     0.007504
PT1694   PT        0.105416    0.613010    0.420572     0.004505
AU1695   AU        0.105481    0.651183    0.381860     0.007504
PT1696   PT        0.141633    0.612101    0.379900     0.004505
PT1697   PT        0.139126    0.650578    0.420170     0.004505
AU1698   AU        0.177395    0.611648    0.419372     0.007504
AU1699   AU        0.176201    0.650424    0.380074     0.007504
PT1700   PT        0.213454    0.613815    0.379635     0.004505
AU1701   AU        0.211905    0.651825    0.420864     0.007504
AU1702   AU        0.247835    0.612097    0.418184     0.007504
AU1703   AU        0.249514    0.651101    0.384041     0.007504
AU1704   AU        0.286100    0.613541    0.380767     0.007504
AU1705   AU        0.283619    0.650866    0.420847     0.007504
PT1706   PT        0.318215    0.613598    0.420575     0.004505
PT1707   PT        0.319488    0.650527    0.382847     0.004505
AU1708   AU        0.356209    0.612537    0.383497     0.007504
AU1709   AU        0.356134    0.651264    0.419098     0.007504
AU1710   AU        0.392853    0.615077    0.420588     0.007504
PT1711   PT        0.394415    0.651830    0.381731     0.004505
AU1712   AU        0.427261    0.614541    0.382508     0.007504
AU1713   AU        0.430629    0.651800    0.420813     0.007504
AU1714   AU        0.464571    0.614607    0.420881     0.007504
AU1715   AU        0.464203    0.653473    0.382599     0.007504
AU1716   AU        0.500770    0.612070    0.382084     0.007504
AU1717   AU        0.500143    0.650108    0.421939     0.007504
AU1718   AU        0.537998    0.613855    0.421254     0.007504
AU1719   AU        0.536668    0.652290    0.382352     0.007504
AU1720   AU        0.572541    0.614632    0.381760     0.007504
AU1721   AU        0.574301    0.652797    0.421311     0.007504
AU1722   AU        0.608229    0.613697    0.423038     0.007504
PT1723   PT        0.610021    0.652750    0.383740     0.004505
AU1724   AU        0.646092    0.615101    0.383949     0.007504
AU1725   AU        0.644716    0.652624    0.423017     0.007504
PT1726   PT        0.680774    0.615420    0.423975     0.004505
PT1727   PT        0.680121    0.653795    0.384431     0.004505
PT1728   PT        0.716866    0.615585    0.382768     0.004505
AU1729   AU        0.716330    0.653348    0.421779     0.007504
PT1730   PT        0.751276    0.614007    0.422323     0.004505
PT1731   PT        0.750263    0.650878    0.385193     0.004505
PT1732   PT        0.784015    0.614329    0.382241     0.004505
PT1733   PT        0.784730    0.651351    0.421603     0.004505
PT1734   PT        0.820382    0.613277    0.419861     0.004505
PT1735   PT        0.819668    0.652449    0.383865     0.004505
PT1736   PT        0.073143    0.690738    0.380466     0.004505
AU1737   AU        0.071703    0.727294    0.419860     0.007504
PT1738   PT        0.107539    0.690192    0.419829     0.004505
PT1739   PT        0.107698    0.728052    0.383559     0.004505
AU1740   AU        0.141611    0.688979    0.380254     0.007504
AU1741   AU        0.140844    0.728542    0.420622     0.007504
AU1742   AU        0.175526    0.689869    0.420606     0.007504
AU1743   AU        0.175588    0.730250    0.383827     0.007504
AU1744   AU        0.211726    0.690569    0.382218     0.007504
AU1745   AU        0.213379    0.728879    0.419928     0.007504
PT1746   PT        0.246341    0.690490    0.420409     0.004505
AU1747   AU        0.249259    0.730105    0.381661     0.007504
AU1748   AU        0.281548    0.688701    0.381951     0.007504
AU1749   AU        0.283122    0.729489    0.420471     0.007504
AU1750   AU        0.318370    0.691322    0.420142     0.007504
AU1751   AU        0.321586    0.728154    0.381280     0.007504
PT1752   PT        0.354387    0.688889    0.381526     0.004505
AU1753   AU        0.356488    0.729954    0.418599     0.007504
PT1754   PT        0.391345    0.693740    0.419023     0.004505
AU1755   AU        0.391853    0.730260    0.380143     0.007504
AU1756   AU        0.430171    0.691298    0.381076     0.007504
AU1757   AU        0.430078    0.730772    0.421765     0.007504
PT1758   PT        0.463784    0.689035    0.421402     0.004505
AU1759   AU        0.462000    0.727850    0.383618     0.007504
AU1760   AU        0.499262    0.694253    0.382205     0.007504
AU1761   AU        0.499064    0.729916    0.423853     0.007504
PT1762   PT        0.536598    0.691001    0.421181     0.004505
AU1763   AU        0.537263    0.727267    0.383439     0.007504
AU1764   AU        0.572547    0.689792    0.382556     0.007504
AU1765   AU        0.574284    0.728420    0.420228     0.007504
AU1766   AU        0.610752    0.692029    0.421923     0.007504
AU1767   AU        0.612242    0.729566    0.381830     0.007504
AU1768   AU        0.647027    0.689771    0.382594     0.007504
AU1769   AU        0.645738    0.727859    0.421170     0.007504
AU1770   AU        0.678942    0.691389    0.420322     0.007504
PT1771   PT        0.679254    0.730322    0.381679     0.004505
PT1772   PT        0.715509    0.690859    0.383428     0.004505
PT1773   PT        0.715005    0.728445    0.422319     0.004505
PT1774   PT        0.750086    0.690132    0.422179     0.004505
PT1775   PT        0.749772    0.726620    0.384938     0.004505
AU1776   AU        0.783639    0.688675    0.384192     0.007504
PT1777   PT        0.785849    0.727300    0.421939     0.004505
AU1778   AU        0.106746    0.765698    0.421557     0.007504
PT1779   PT        0.143361    0.767219    0.383839     0.004505
PT1780   PT        0.142846    0.803584    0.421460     0.004505
PT1781   PT        0.177169    0.768234    0.419864     0.004505
PT1782   PT        0.178297    0.807013    0.383064     0.004505
AU1783   AU        0.211739    0.768081    0.380064     0.007504
AU1784   AU        0.212829    0.805353    0.420412     0.007504
AU1785   AU        0.248383    0.767002    0.417979     0.007504
AU1786   AU        0.249289    0.804538    0.379134     0.007504
PT1787   PT        0.283836    0.766959    0.380003     0.004505
PT1788   PT        0.284639    0.805574    0.417755     0.004505
PT1789   PT        0.318728    0.767106    0.418577     0.004505
PT1790   PT        0.319950    0.804058    0.380167     0.004505
PT1791   PT        0.357022    0.767661    0.381381     0.004505
PT1792   PT        0.356396    0.804323    0.417612     0.004505
AU1793   AU        0.393189    0.765669    0.420450     0.007504
AU1794   AU        0.391856    0.804956    0.381014     0.007504
AU1795   AU        0.427152    0.767227    0.380142     0.007504
PT1796   PT        0.425391    0.803331    0.423200     0.004505
PT1797   PT        0.464242    0.768233    0.423587     0.004505
AU1798   AU        0.465344    0.802776    0.383614     0.007504
AU1799   AU        0.501643    0.765882    0.384287     0.007504
PT1800   PT        0.503764    0.803090    0.424866     0.004505
AU1801   AU        0.537181    0.764440    0.422198     0.007504
AU1802   AU        0.538234    0.803283    0.383779     0.007504
PT1803   PT        0.574426    0.767294    0.385481     0.004505
AU1804   AU        0.572724    0.805102    0.421937     0.007504
AU1805   AU        0.611902    0.766364    0.420546     0.007504
AU1806   AU        0.609256    0.803269    0.381025     0.007504
PT1807   PT        0.645173    0.766624    0.383783     0.004505
PT1808   PT        0.645140    0.804520    0.422214     0.004505
AU1809   AU        0.680436    0.766326    0.423382     0.007504
AU1810   AU        0.678500    0.803394    0.382888     0.007504
PT1811   PT        0.714924    0.767125    0.384594     0.004505
PT1812   PT        0.714412    0.803895    0.422432     0.004505
PT1813   PT        0.748570    0.764103    0.422754     0.004505
PT1814   PT        0.179381    0.843075    0.421050     0.004505
PT1815   PT        0.216029    0.842449    0.381094     0.004505
PT1816   PT        0.250865    0.841206    0.420009     0.004505
PT1817   PT        0.252082    0.879960    0.382431     0.004505
PT1818   PT        0.286944    0.843550    0.380759     0.004505
PT1819   PT        0.286897    0.878706    0.419581     0.004505
PT1820   PT        0.321598    0.843282    0.418539     0.004505
PT1821   PT        0.321955    0.878651    0.381501     0.004505
PT1822   PT        0.356985    0.841583    0.380589     0.004505
AU1823   AU        0.356845    0.878384    0.421416     0.007504
PT1824   PT        0.391688    0.840453    0.420873     0.004505
AU1825   AU        0.394355    0.876476    0.383169     0.007504
PT1826   PT        0.427722    0.838967    0.381719     0.004505
PT1827   PT        0.429794    0.872495    0.423631     0.004505
AU1828   AU        0.466192    0.838463    0.421519     0.007504
PT1829   PT        0.463933    0.874763    0.384035     0.004505
PT1830   PT        0.502371    0.840493    0.383500     0.004505
PT1831   PT        0.500952    0.875741    0.422967     0.004505
PT1832   PT        0.538499    0.841456    0.423057     0.004505
PT1833   PT        0.534909    0.875648    0.382060     0.004505
PT1834   PT        0.571421    0.839734    0.381681     0.004505
PT1835   PT        0.572646    0.876698    0.420959     0.004505
PT1836   PT        0.607793    0.841685    0.420249     0.004505
PT1837   PT        0.604972    0.876129    0.381897     0.004505
AU1838   AU        0.641463    0.840605    0.384376     0.007504
AU1839   AU        0.678082    0.840734    0.421265     0.007504
PT1840   PT        0.396057    0.909848    0.420720     0.004505
PT1841   PT        0.430594    0.909256    0.386332     0.004505
AU1842   AU        0.464603    0.909340    0.422216     0.007504
PT1843   PT        0.250473    0.040037    0.460858     0.004505
PT1844   PT        0.284949    0.039548    0.498705     0.004505
PT1845   PT        0.321966    0.039051    0.459277     0.004505
AU1846   AU        0.359551    0.001309    0.460327     0.007504
PT1847   PT        0.358756    0.038319    0.497123     0.004505
AU1848   AU        0.394931    0.002177    0.498248     0.007504
PT1849   PT        0.393534    0.037350    0.459766     0.004505
PT1850   PT        0.429104    0.003558    0.459734     0.004505
PT1851   PT        0.428769    0.038238    0.496958     0.004505
PT1852   PT        0.464009    0.003227    0.496251     0.004505
AU1853   AU        0.464699    0.039442    0.458404     0.007504
PT1854   PT        0.500308    0.001826    0.459673     0.004505
AU1855   AU        0.498730    0.041139    0.498400     0.007504
PT1856   PT        0.535397    0.039633    0.458894     0.004505
PT1857   PT        0.572603    0.040929    0.499253     0.004505
PT1858   PT        0.606972    0.039310    0.460666     0.004505
PT1859   PT        0.142928    0.114105    0.497322     0.004505
PT1860   PT        0.178628    0.077030    0.496820     0.004505
AU1861   AU        0.179167    0.115314    0.458933     0.007504
PT1862   PT        0.214333    0.077855    0.459812     0.004505
AU1863   AU        0.211787    0.114660    0.498105     0.007504
AU1864   AU        0.249996    0.076699    0.499802     0.007504
AU1865   AU        0.249693    0.112934    0.461074     0.007504
PT1866   PT        0.286227    0.075112    0.459242     0.004505
AU1867   AU        0.287895    0.112331    0.497950     0.007504
AU1868   AU        0.320920    0.074612    0.501486     0.007504
AU1869   AU        0.319670    0.112159    0.459211     0.007504
PT1870   PT        0.358287    0.074042    0.457494     0.004505
AU1871   AU        0.355783    0.113069    0.498342     0.007504
PT1872   PT        0.391762    0.075524    0.497843     0.004505
PT1873   PT        0.390762    0.111753    0.460543     0.004505
PT1874   PT        0.427506    0.074677    0.460810     0.004505
PT1875   PT        0.429128    0.111938    0.499595     0.004505
AU1876   AU        0.464137    0.075318    0.498028     0.007504
PT1877   PT        0.465995    0.113062    0.461899     0.004505
PT1878   PT        0.502058    0.075645    0.459488     0.004505
PT1879   PT        0.501568    0.111757    0.499001     0.004505
PT1880   PT        0.537386    0.076005    0.499191     0.004505
PT1881   PT        0.536870    0.112386    0.458228     0.004505
PT1882   PT        0.571733    0.075664    0.459060     0.004505
PT1883   PT        0.573406    0.112237    0.498334     0.004505
AU1884   AU        0.607612    0.076611    0.498824     0.007504
PT1885   PT        0.608601    0.110834    0.458948     0.004505
PT1886   PT        0.643936    0.076288    0.461056     0.004505
AU1887   AU        0.642757    0.112954    0.497492     0.007504
PT1888   PT        0.678118    0.076789    0.500519     0.004505
PT1889   PT        0.679234    0.114551    0.461495     0.004505
PT1890   PT        0.713337    0.112717    0.498888     0.004505
PT1891   PT        0.071452    0.190658    0.496551     0.004505
AU1892   AU        0.107046    0.151034    0.500245     0.007504
PT1893   PT        0.106429    0.189855    0.458532     0.004505
PT1894   PT        0.142440    0.149871    0.459227     0.004505
AU1895   AU        0.141345    0.188357    0.497435     0.007504
AU1896   AU        0.177056    0.152237    0.497526     0.007504
AU1897   AU        0.175645    0.188420    0.460232     0.007504
AU1898   AU        0.212688    0.152051    0.459822     0.007504
AU1899   AU        0.211091    0.190017    0.499411     0.007504
PT1900   PT        0.248356    0.152126    0.498871     0.004505
PT1901   PT        0.248471    0.191128    0.459050     0.004505
PT1902   PT        0.285369    0.151505    0.458503     0.004505
AU1903   AU        0.281708    0.190772    0.496804     0.007504
AU1904   AU        0.323027    0.149895    0.497930     0.007504
PT1905   PT        0.321517    0.189621    0.459022     0.004505
AU1906   AU        0.359170    0.151250    0.459052     0.007504
AU1907   AU        0.359724    0.191236    0.498141     0.007504
AU1908   AU        0.392497    0.151189    0.498992     0.007504
PT1909   PT        0.393512    0.188990    0.460718     0.004505
PT1910   PT        0.424843    0.151071    0.460472     0.004505
PT1911   PT        0.426670    0.189869    0.500756     0.004505
PT1912   PT        0.461575    0.150166    0.497335     0.004505
AU1913   AU        0.468069    0.190866    0.457313     0.007504
AU1914   AU        0.501160    0.149187    0.458314     0.007504
PT1915   PT        0.499339    0.190834    0.500351     0.004505
AU1916   AU        0.537015    0.148255    0.498640     0.007504
PT1917   PT        0.537550    0.190014    0.458611     0.004505
AU1918   AU        0.573737    0.149341    0.460193     0.007504
PT1919   PT        0.573773    0.190144    0.496988     0.004505
AU1920   AU        0.607530    0.148340    0.498160     0.007504
AU1921   AU        0.610046    0.190368    0.458055     0.007504
AU1922   AU        0.644738    0.149751    0.459784     0.007504
PT1923   PT        0.641536    0.186831    0.496049     0.004505
AU1924   AU        0.678736    0.152044    0.496642     0.007504
AU1925   AU        0.679461    0.189119    0.458424     0.007504
AU1926   AU        0.714896    0.152870    0.459904     0.007504
AU1927   AU        0.714644    0.190799    0.497210     0.007504
AU1928   AU        0.749427    0.153743    0.497063     0.007504
AU1929   AU        0.749140    0.191025    0.458440     0.007504
PT1930   PT        0.785209    0.191543    0.497413     0.004505
PT1931   PT        0.037478    0.266443    0.459882     0.004505
AU1932   AU        0.073237    0.229485    0.460901     0.007504
PT1933   PT        0.074136    0.266980    0.496311     0.004505
PT1934   PT        0.107914    0.227833    0.498795     0.004505
PT1935   PT        0.107446    0.266413    0.460076     0.004505
PT1936   PT        0.142183    0.228590    0.459874     0.004505
AU1937   AU        0.141066    0.266906    0.497933     0.007504
AU1938   AU        0.177724    0.226847    0.497447     0.007504
PT1939   PT        0.177047    0.264688    0.461003     0.004505
AU1940   AU        0.212444    0.225544    0.459932     0.007504
AU1941   AU        0.211960    0.265678    0.499376     0.007504
AU1942   AU        0.246945    0.227695    0.498408     0.007504
AU1943   AU        0.246142    0.263950    0.462588     0.007504
PT1944   PT        0.283904    0.228205    0.460294     0.004505
PT1945   PT        0.282917    0.265884    0.497490     0.004505
AU1946   AU        0.321126    0.228542    0.498879     0.007504
AU1947   AU        0.321267    0.264021    0.458726     0.007504
AU1948   AU        0.356640    0.227811    0.460311     0.007504
AU1949   AU        0.357787    0.268206    0.497692     0.007504
AU1950   AU        0.393674    0.229056    0.499779     0.007504
PT1951   PT        0.392594    0.268470    0.459692     0.004505
AU1952   AU        0.427871    0.229193    0.457977     0.007504
AU1953   AU        0.429214    0.266710    0.497116     0.007504
AU1954   AU        0.464233    0.228903    0.497522     0.007504
AU1955   AU        0.463408    0.266410    0.458784     0.007504
AU1956   AU        0.501968    0.228421    0.460395     0.007504
AU1957   AU        0.498556    0.268381    0.497364     0.007504
AU1958   AU        0.536491    0.229325    0.498392     0.007504
AU1959   AU        0.535345    0.267917    0.460491     0.007504
PT1960   PT        0.571129    0.229330    0.458234     0.004505
AU1961   AU        0.573730    0.266633    0.498079     0.007504
PT1962   PT        0.609775    0.227778    0.495178     0.004505
AU1963   AU        0.608106    0.269119    0.461871     0.007504
AU1964   AU        0.643463    0.226914    0.460338     0.007504
PT1965   PT        0.646122    0.268886    0.498673     0.004505
PT1966   PT        0.679119    0.227619    0.497161     0.004505
PT1967   PT        0.680188    0.267593    0.460015     0.004505
PT1968   PT        0.716985    0.228753    0.458700     0.004505
AU1969   AU        0.715664    0.267741    0.498274     0.007504
PT1970   PT        0.749618    0.228066    0.497125     0.004505
PT1971   PT        0.751103    0.265123    0.458450     0.004505
PT1972   PT        0.785168    0.227610    0.460558     0.004505
AU1973   AU        0.785175    0.267763    0.498005     0.007504
PT1974   PT        0.818972    0.266900    0.459408     0.004505
PT1975   PT        0.039134    0.305025    0.497145     0.004505
PT1976   PT        0.037510    0.343729    0.457006     0.004505
PT1977   PT        0.073142    0.305719    0.459412     0.004505
PT1978   PT        0.070377    0.343965    0.497699     0.004505
PT1979   PT        0.106309    0.305326    0.496471     0.004505
PT1980   PT        0.105744    0.346467    0.459305     0.004505
AU1981   AU        0.141454    0.306294    0.458245     0.007504
AU1982   AU        0.141145    0.342222    0.499206     0.007504
PT1983   PT        0.177946    0.305504    0.497630     0.004505
AU1984   AU        0.177900    0.343205    0.459386     0.007504
PT1985   PT        0.212763    0.304418    0.457815     0.004505
PT1986   PT        0.212868    0.345121    0.499451     0.004505
AU1987   AU        0.248598    0.305976    0.497881     0.007504
PT1988   PT        0.247562    0.341900    0.461290     0.004505
AU1989   AU        0.285908    0.304106    0.459667     0.007504
AU1990   AU        0.284281    0.341569    0.498805     0.007504
AU1991   AU        0.319543    0.306717    0.495984     0.007504
AU1992   AU        0.321748    0.342330    0.459227     0.007504
AU1993   AU        0.356200    0.306199    0.459401     0.007504
AU1994   AU        0.357916    0.345326    0.497982     0.007504
AU1995   AU        0.392523    0.304911    0.496971     0.007504
PT1996   PT        0.392981    0.345722    0.458908     0.004505
AU1997   AU        0.427863    0.303397    0.457926     0.007504
AU1998   AU        0.427754    0.342285    0.496894     0.007504
PT1999   PT        0.463931    0.306025    0.497759     0.004505
AU2000   AU        0.463938    0.342649    0.457360     0.007504
AU2001   AU        0.499076    0.305724    0.461066     0.007504
PT2002   PT        0.499994    0.344675    0.499172     0.004505
AU2003   AU        0.535910    0.306947    0.499877     0.007504
AU2004   AU        0.534812    0.342778    0.461027     0.007504
AU2005   AU        0.571109    0.307281    0.460710     0.007504
AU2006   AU        0.570813    0.344126    0.498982     0.007504
AU2007   AU        0.607625    0.307352    0.498545     0.007504
AU2008   AU        0.608423    0.342394    0.460977     0.007504
AU2009   AU        0.642403    0.307146    0.459851     0.007504
AU2010   AU        0.644316    0.344404    0.498494     0.007504
PT2011   PT        0.680769    0.306460    0.497857     0.004505
AU2012   AU        0.680210    0.343192    0.460597     0.007504
AU2013   AU        0.716155    0.302884    0.459471     0.007504
PT2014   PT        0.716283    0.342203    0.497500     0.004505
AU2015   AU        0.751443    0.305187    0.496470     0.007504
AU2016   AU        0.752817    0.344841    0.462718     0.007504
PT2017   PT        0.785549    0.303703    0.458688     0.004505
AU2018   AU        0.786384    0.343272    0.499878     0.007504
PT2019   PT        0.819180    0.304212    0.496376     0.004505
PT2020   PT        0.820557    0.343784    0.459722     0.004505
AU2021   AU        0.001342    0.384393    0.458506     0.007504
PT2022   PT        0.004715    0.421822    0.498490     0.004505
PT2023   PT        0.038208    0.381745    0.497442     0.004505
PT2024   PT        0.035859    0.422289    0.458717     0.004505
PT2025   PT        0.070823    0.381475    0.458783     0.004505
PT2026   PT        0.069748    0.420439    0.499352     0.004505
PT2027   PT        0.105559    0.382815    0.498278     0.004505
AU2028   AU        0.104276    0.421305    0.460328     0.007504
AU2029   AU        0.142294    0.380874    0.457873     0.007504
AU2030   AU        0.141825    0.420577    0.500110     0.007504
AU2031   AU        0.177829    0.379668    0.497382     0.007504
PT2032   PT        0.177713    0.421038    0.462736     0.004505
AU2033   AU        0.215113    0.383215    0.459296     0.007504
AU2034   AU        0.212919    0.422482    0.500098     0.007504
AU2035   AU        0.248434    0.382496    0.498251     0.007504
AU2036   AU        0.249578    0.421327    0.457857     0.007504
AU2037   AU        0.283274    0.380172    0.458508     0.007504
AU2038   AU        0.283309    0.420572    0.499046     0.007504
AU2039   AU        0.320038    0.382146    0.496940     0.007504
AU2040   AU        0.318764    0.419331    0.457947     0.007504
AU2041   AU        0.355457    0.381917    0.460106     0.007504
PT2042   PT        0.354902    0.420872    0.495948     0.004505
AU2043   AU        0.391657    0.381436    0.496740     0.007504
AU2044   AU        0.389072    0.421273    0.460570     0.007504
AU2045   AU        0.428671    0.383319    0.458963     0.007504
AU2046   AU        0.429611    0.419335    0.496369     0.007504
AU2047   AU        0.465002    0.384835    0.499825     0.007504
AU2048   AU        0.465909    0.421642    0.458026     0.007504
PT2049   PT        0.501841    0.384247    0.459519     0.004505
AU2050   AU        0.501352    0.420095    0.497623     0.007504
AU2051   AU        0.535930    0.380748    0.498184     0.007504
AU2052   AU        0.538295    0.420133    0.461394     0.007504
AU2053   AU        0.571389    0.380787    0.458251     0.007504
AU2054   AU        0.574275    0.421326    0.497680     0.007504
PT2055   PT        0.605802    0.381197    0.497853     0.004505
AU2056   AU        0.607868    0.419934    0.458599     0.007504
AU2057   AU        0.644210    0.380569    0.459020     0.007504
AU2058   AU        0.641592    0.418808    0.497792     0.007504
PT2059   PT        0.680125    0.382233    0.495890     0.004505
AU2060   AU        0.679480    0.421488    0.458779     0.007504
AU2061   AU        0.716429    0.382805    0.460803     0.007504
AU2062   AU        0.716930    0.420975    0.499904     0.007504
PT2063   PT        0.750805    0.381143    0.499941     0.004505
PT2064   PT        0.751703    0.418451    0.459568     0.004505
PT2065   PT        0.786908    0.380476    0.459354     0.004505
PT2066   PT        0.787105    0.424154    0.498727     0.004505
AU2067   AU        0.820905    0.384759    0.497706     0.007504
AU2068   AU        0.819695    0.420026    0.459488     0.007504
AU2069   AU        0.855095    0.384353    0.460312     0.007504
PT2070   PT        0.854280    0.421086    0.497879     0.004505
PT2071   PT        0.001201    0.461828    0.459890     0.004505
PT2072   PT        0.002992    0.496908    0.496260     0.004505
PT2073   PT        0.036109    0.459819    0.496610     0.004505
PT2074   PT        0.036481    0.497121    0.459098     0.004505
AU2075   AU        0.071655    0.459659    0.458255     0.007504
AU2076   AU        0.070819    0.496977    0.496126     0.007504
AU2077   AU        0.105914    0.457086    0.498834     0.007504
PT2078   PT        0.105609    0.498174    0.457592     0.004505
AU2079   AU        0.139912    0.458433    0.458337     0.007504
AU2080   AU        0.139974    0.497056    0.494619     0.007504
AU2081   AU        0.177372    0.460289    0.499542     0.007504
AU2082   AU        0.175679    0.498428    0.457821     0.007504
PT2083   PT        0.212156    0.459780    0.458407     0.004505
AU2084   AU        0.213229    0.498250    0.498227     0.007504
AU2085   AU        0.249213    0.457262    0.495567     0.007504
AU2086   AU        0.247908    0.499294    0.459365     0.007504
AU2087   AU        0.286612    0.459530    0.458087     0.007504
AU2088   AU        0.283995    0.497156    0.495451     0.007504
AU2089   AU        0.319834    0.457710    0.496451     0.007504
AU2090   AU        0.320825    0.496582    0.457416     0.007504
AU2091   AU        0.357319    0.458361    0.458080     0.007504
PT2092   PT        0.352912    0.496376    0.495281     0.004505
AU2093   AU        0.394264    0.459036    0.497017     0.007504
AU2094   AU        0.391318    0.497526    0.458938     0.007504
AU2095   AU        0.432264    0.458578    0.459939     0.007504
AU2096   AU        0.430900    0.498804    0.497790     0.007504
AU2097   AU        0.465868    0.459388    0.500305     0.007504
AU2098   AU        0.466894    0.499154    0.460849     0.007504
PT2099   PT        0.499704    0.462658    0.460687     0.004505
PT2100   PT        0.500086    0.497020    0.499559     0.004505
AU2101   AU        0.536923    0.458710    0.499320     0.007504
AU2102   AU        0.533826    0.497770    0.460166     0.007504
PT2103   PT        0.572561    0.456586    0.458500     0.004505
AU2104   AU        0.571208    0.497981    0.498190     0.007504
AU2105   AU        0.608790    0.458484    0.499361     0.007504
PT2106   PT        0.606965    0.497119    0.456392     0.004505
AU2107   AU        0.643559    0.458743    0.461130     0.007504
PT2108   PT        0.646288    0.498346    0.502883     0.004505
AU2109   AU        0.681527    0.459823    0.499141     0.007504
PT2110   PT        0.682683    0.496063    0.462162     0.004505
AU2111   AU        0.717837    0.461161    0.459124     0.007504
AU2112   AU        0.717217    0.498964    0.499650     0.007504
PT2113   PT        0.751491    0.460000    0.497068     0.004505
AU2114   AU        0.751635    0.499757    0.458839     0.007504
PT2115   PT        0.785976    0.458291    0.457433     0.004505
PT2116   PT        0.784971    0.497575    0.497169     0.004505
AU2117   AU        0.820071    0.459800    0.497037     0.007504
PT2118   PT        0.821435    0.496540    0.460184     0.004505
AU2119   AU        0.853874    0.458637    0.459552     0.007504
PT2120   PT        0.855280    0.496537    0.495996     0.004505
AU2121   AU        0.001309    0.535091    0.460872     0.007504
AU2122   AU        0.036828    0.535133    0.498918     0.007504
PT2123   PT        0.036359    0.571771    0.458675     0.004505
PT2124   PT        0.070944    0.536607    0.457790     0.004505
PT2125   PT        0.071304    0.576234    0.497971     0.004505
PT2126   PT        0.105373    0.536124    0.496603     0.004505
AU2127   AU        0.105494    0.577615    0.460050     0.007504
AU2128   AU        0.140233    0.536841    0.458252     0.007504
AU2129   AU        0.140097    0.576778    0.498385     0.007504
AU2130   AU        0.175218    0.535958    0.496860     0.007504
AU2131   AU        0.176555    0.573362    0.458681     0.007504
PT2132   PT        0.210482    0.536463    0.458612     0.004505
AU2133   AU        0.211782    0.574158    0.497972     0.007504
AU2134   AU        0.247158    0.536500    0.497468     0.007504
AU2135   AU        0.246319    0.575746    0.457959     0.007504
AU2136   AU        0.284106    0.536710    0.458275     0.007504
AU2137   AU        0.282109    0.574880    0.494303     0.007504
PT2138   PT        0.319968    0.535725    0.494975     0.004505
AU2139   AU        0.317923    0.573994    0.459806     0.007504
AU2140   AU        0.355863    0.536025    0.458751     0.007504
AU2141   AU        0.354341    0.576326    0.493560     0.007504
AU2142   AU        0.390830    0.535671    0.494284     0.007504
AU2143   AU        0.390220    0.576278    0.456725     0.007504
AU2144   AU        0.430576    0.536755    0.457578     0.007504
AU2145   AU        0.430573    0.575106    0.500180     0.007504
AU2146   AU        0.465330    0.536512    0.500321     0.007504
AU2147   AU        0.464827    0.575315    0.461790     0.007504
AU2148   AU        0.500341    0.536630    0.459156     0.007504
AU2149   AU        0.501156    0.576373    0.497961     0.007504
PT2150   PT        0.536772    0.535322    0.495995     0.004505
AU2151   AU        0.535992    0.575664    0.461206     0.007504
AU2152   AU        0.571894    0.538611    0.459310     0.007504
AU2153   AU        0.575497    0.576676    0.500502     0.007504
AU2154   AU        0.610308    0.535823    0.499656     0.007504
PT2155   PT        0.608536    0.576592    0.462799     0.004505
AU2156   AU        0.644547    0.536459    0.457183     0.007504
AU2157   AU        0.645111    0.574942    0.500361     0.007504
AU2158   AU        0.680822    0.537345    0.499307     0.007504
PT2159   PT        0.681216    0.576079    0.461789     0.004505
PT2160   PT        0.716840    0.537823    0.460852     0.004505
AU2161   AU        0.715953    0.576935    0.499466     0.007504
AU2162   AU        0.751143    0.537762    0.499831     0.007504
PT2163   PT        0.749985    0.575830    0.460437     0.004505
AU2164   AU        0.785651    0.536713    0.460204     0.007504
PT2165   PT        0.786977    0.573314    0.498483     0.004505
AU2166   AU        0.819733    0.535107    0.497288     0.007504
PT2167   PT        0.820664    0.575926    0.458752     0.004505
PT2168   PT        0.856466    0.535732    0.461246     0.004505
AU2169   AU        0.038392    0.614083    0.498951     0.007504
PT2170   PT        0.037318    0.650801    0.459891     0.004505
AU2171   AU        0.071708    0.614547    0.459831     0.007504
PT2172   PT        0.072924    0.652176    0.497736     0.004505
AU2173   AU        0.106928    0.614670    0.498790     0.007504
PT2174   PT        0.106295    0.651870    0.459756     0.004505
AU2175   AU        0.141740    0.613818    0.459660     0.007504
PT2176   PT        0.140941    0.651111    0.498414     0.004505
PT2177   PT        0.177489    0.611908    0.495660     0.004505
PT2178   PT        0.174686    0.652194    0.460363     0.004505
PT2179   PT        0.210666    0.613428    0.456844     0.004505
AU2180   AU        0.209465    0.651385    0.497267     0.007504
AU2181   AU        0.245638    0.613617    0.494988     0.007504
PT2182   PT        0.246839    0.652006    0.459461     0.004505
PT2183   PT        0.282693    0.613921    0.457724     0.004505
AU2184   AU        0.282215    0.651703    0.496733     0.007504
PT2185   PT        0.317896    0.614043    0.493421     0.004505
AU2186   AU        0.319739    0.651200    0.457125     0.007504
AU2187   AU        0.354140    0.613051    0.457803     0.007504
AU2188   AU        0.352605    0.651930    0.493525     0.007504
PT2189   PT        0.391207    0.613577    0.494924     0.004505
AU2190   AU        0.390992    0.653387    0.459281     0.007504
PT2191   PT        0.427713    0.613454    0.462489     0.004505
PT2192   PT        0.430199    0.654155    0.499192     0.004505
AU2193   AU        0.465493    0.612997    0.497506     0.007504
AU2194   AU        0.463686    0.650634    0.458697     0.007504
AU2195   AU        0.501847    0.612319    0.459975     0.007504
AU2196   AU        0.500928    0.650315    0.498853     0.007504
AU2197   AU        0.535380    0.613574    0.499039     0.007504
AU2198   AU        0.537491    0.650263    0.460502     0.007504
AU2199   AU        0.570905    0.613518    0.462243     0.007504
AU2200   AU        0.575384    0.653145    0.497435     0.007504
AU2201   AU        0.610043    0.614467    0.501086     0.007504
AU2202   AU        0.609771    0.653765    0.460744     0.007504
AU2203   AU        0.644667    0.615157    0.462160     0.007504
AU2204   AU        0.644165    0.653637    0.500123     0.007504
PT2205   PT        0.678906    0.613265    0.499263     0.004505
PT2206   PT        0.681320    0.654691    0.460296     0.004505
PT2207   PT        0.715494    0.613293    0.460453     0.004505
PT2208   PT        0.715091    0.650400    0.499094     0.004505
AU2209   AU        0.751397    0.615810    0.498263     0.007504
PT2210   PT        0.750976    0.652076    0.459899     0.004505
AU2211   AU        0.785477    0.613486    0.460630     0.007504
AU2212   AU        0.786235    0.654069    0.497769     0.007504
PT2213   PT        0.820675    0.612744    0.497050     0.004505
PT2214   PT        0.819402    0.654957    0.458638     0.004505
AU2215   AU        0.073578    0.690194    0.458937     0.007504
PT2216   PT        0.072726    0.726424    0.498051     0.004505
PT2217   PT        0.107201    0.689645    0.498169     0.004505
AU2218   AU        0.106697    0.731097    0.457256     0.007504
AU2219   AU        0.140322    0.691257    0.459682     0.007504
PT2220   PT        0.141671    0.728187    0.497007     0.004505
PT2221   PT        0.178021    0.692877    0.498404     0.004505
AU2222   AU        0.175587    0.728588    0.458177     0.007504
AU2223   AU        0.212409    0.691444    0.459140     0.007504
AU2224   AU        0.212682    0.731706    0.498159     0.007504
AU2225   AU        0.248177    0.694203    0.498299     0.007504
AU2226   AU        0.248389    0.728602    0.457441     0.007504
AU2227   AU        0.282901    0.688966    0.457709     0.007504
PT2228   PT        0.283143    0.731406    0.497500     0.004505
AU2229   AU        0.317739    0.690153    0.493559     0.007504
AU2230   AU        0.320320    0.729480    0.457713     0.007504
AU2231   AU        0.354731    0.688893    0.455028     0.007504
PT2232   PT        0.358507    0.732476    0.501332     0.004505
PT2233   PT        0.395097    0.691939    0.499960     0.004505
AU2234   AU        0.391048    0.729790    0.459554     0.007504
AU2235   AU        0.428327    0.692471    0.461601     0.007504
AU2236   AU        0.429597    0.727798    0.499505     0.007504
AU2237   AU        0.466027    0.690901    0.500608     0.007504
AU2238   AU        0.465085    0.731033    0.459936     0.007504
PT2239   PT        0.499953    0.688011    0.459714     0.004505
AU2240   AU        0.500079    0.728834    0.497448     0.007504
AU2241   AU        0.538429    0.689101    0.499965     0.007504
AU2242   AU        0.537350    0.729506    0.463912     0.007504
PT2243   PT        0.574170    0.690032    0.462238     0.004505
AU2244   AU        0.574132    0.728600    0.500073     0.007504
PT2245   PT        0.609307    0.691985    0.501020     0.004505
AU2246   AU        0.611428    0.729218    0.459747     0.007504
AU2247   AU        0.646184    0.692284    0.461829     0.007504
PT2248   PT        0.646075    0.730136    0.498507     0.004505
PT2249   PT        0.681767    0.690834    0.500775     0.004505
PT2250   PT        0.680040    0.730060    0.459574     0.004505
PT2251   PT        0.717050    0.691611    0.460930     0.004505
AU2252   AU        0.715486    0.728857    0.497197     0.007504
PT2253   PT        0.751137    0.690076    0.498299     0.004505
PT2254   PT        0.750545    0.728195    0.458187     0.004505
PT2255   PT        0.783674    0.688640    0.459884     0.004505
PT2256   PT        0.784754    0.726805    0.498541     0.004505
PT2257   PT        0.108821    0.766175    0.495811     0.004505
PT2258   PT        0.142805    0.765757    0.459165     0.004505
PT2259   PT        0.145445    0.805014    0.498298     0.004505
PT2260   PT        0.180080    0.768141    0.496909     0.004505
AU2261   AU        0.177225    0.805351    0.457595     0.007504
PT2262   PT        0.213870    0.769143    0.460127     0.004505
AU2263   AU        0.212932    0.806044    0.498008     0.007504
AU2264   AU        0.248069    0.768580    0.498149     0.007504
AU2265   AU        0.250671    0.805450    0.459181     0.007504
AU2266   AU        0.284946    0.767921    0.459196     0.007504
PT2267   PT        0.285229    0.806386    0.496744     0.004505
PT2268   PT        0.319123    0.768768    0.499539     0.004505
AU2269   AU        0.320901    0.805522    0.458943     0.007504
AU2270   AU        0.356223    0.768091    0.461164     0.007504
AU2271   AU        0.354316    0.806008    0.498888     0.007504
AU2272   AU        0.393992    0.767248    0.499642     0.007504
PT2273   PT        0.389518    0.803773    0.460877     0.004505
AU2274   AU        0.430343    0.767166    0.459973     0.007504
AU2275   AU        0.429996    0.803466    0.500607     0.007504
AU2276   AU        0.464886    0.766656    0.499471     0.007504
PT2277   PT        0.465724    0.803767    0.462590     0.004505
AU2278   AU        0.501914    0.766415    0.461854     0.007504
AU2279   AU        0.502015    0.805553    0.499515     0.007504
PT2280   PT        0.539616    0.767084    0.498739     0.004505
PT2281   PT        0.538038    0.802944    0.461122     0.004505
PT2282   PT        0.574203    0.766459    0.461191     0.004505
PT2283   PT        0.573610    0.805538    0.500336     0.004505
AU2284   AU        0.609211    0.766246    0.498359     0.007504
AU2285   AU        0.609476    0.803860    0.458056     0.007504
PT2286   PT        0.644451    0.766472    0.461295     0.004505
PT2287   PT        0.642463    0.803488    0.497305     0.004505
PT2288   PT        0.679852    0.769961    0.497793     0.004505
PT2289   PT        0.677941    0.804713    0.458815     0.004505
AU2290   AU        0.715782    0.767353    0.461621     0.007504
PT2291   PT        0.715033    0.805103    0.498346     0.004505
PT2292   PT        0.750023    0.766735    0.496999     0.004505
AU2293   AU        0.178004    0.842003    0.498004     0.007504
PT2294   PT        0.213753    0.841515    0.461324     0.004505
AU2295   AU        0.248509    0.841115    0.500467     0.007504
PT2296   PT        0.283378    0.915196    0.457769     0.004505
PT2297   PT        0.286323    0.842649    0.458304     0.004505
AU2298   AU        0.284836    0.878398    0.495752     0.007504
AU2299   AU        0.321574    0.843377    0.497451     0.007504
PT2300   PT        0.321969    0.878609    0.457750     0.004505
PT2301   PT        0.356718    0.842487    0.458848     0.004505
AU2302   AU        0.357736    0.878015    0.497458     0.007504
AU2303   AU        0.390153    0.842086    0.499166     0.007504
PT2304   PT        0.392328    0.877123    0.459385     0.004505
PT2305   PT        0.429634    0.839559    0.462636     0.004505
PT2306   PT        0.427463    0.877295    0.499590     0.004505
PT2307   PT        0.464775    0.842206    0.499844     0.004505
AU2308   AU        0.464819    0.875060    0.460052     0.007504
AU2309   AU        0.503737    0.840130    0.459566     0.007504
PT2310   PT        0.499852    0.875934    0.499373     0.004505
PT2311   PT        0.536357    0.841803    0.498069     0.004505
PT2312   PT        0.536454    0.877934    0.458956     0.004505
PT2313   PT        0.572133    0.841965    0.459759     0.004505
PT2314   PT        0.571726    0.879138    0.496377     0.004505
AU2315   AU        0.607134    0.842894    0.498504     0.007504
PT2316   PT        0.606791    0.878792    0.459466     0.004505
PT2317   PT        0.643730    0.841761    0.460143     0.004505
PT2318   PT        0.676843    0.841247    0.498553     0.004505
PT2319   PT        0.360162    0.915040    0.458647     0.004505
PT2320   PT        0.394768    0.915073    0.496629     0.004505
AU2321   AU        0.429791    0.909957    0.459536     0.007504
AU2322   AU        0.463567    0.911596    0.496786     0.007504
AU2323   AU        0.498190    0.911293    0.459705     0.007504
PT2324   PT        0.249464    0.041236    0.537343     0.004505
PT2325   PT        0.284259    0.041276    0.574954     0.004505
AU2326   AU        0.320322    0.038424    0.538049     0.007504
PT2327   PT        0.355592    0.040059    0.575103     0.004505
AU2328   AU        0.393320    0.039436    0.535268     0.007504
PT2329   PT        0.429592    0.000769    0.535597     0.004505
PT2330   PT        0.427958    0.039920    0.575337     0.004505
PT2331   PT        0.465404    0.039501    0.534889     0.004505
PT2332   PT        0.501050    0.040944    0.573701     0.004505
PT2333   PT        0.534734    0.040387    0.534746     0.004505
PT2334   PT        0.573875    0.039145    0.577014     0.004505
PT2335   PT        0.606115    0.039676    0.537904     0.004505
AU2336   AU        0.179433    0.112550    0.534608     0.007504
PT2337   PT        0.214143    0.078011    0.536061     0.004505
PT2338   PT        0.212763    0.113568    0.576355     0.004505
PT2339   PT        0.250311    0.078652    0.575244     0.004505
AU2340   AU        0.249830    0.115010    0.536159     0.007504
AU2341   AU        0.285420    0.077716    0.536969     0.007504
PT2342   PT        0.284054    0.114286    0.576606     0.004505
PT2343   PT        0.320293    0.077397    0.576124     0.004505
AU2344   AU        0.320511    0.112301    0.538683     0.007504
AU2345   AU        0.356164    0.073693    0.535805     0.007504
PT2346   PT        0.358328    0.111748    0.576817     0.004505
PT2347   PT        0.393087    0.075649    0.576517     0.004505
AU2348   AU        0.394006    0.112394    0.536610     0.007504
AU2349   AU        0.428087    0.074510    0.537132     0.007504
AU2350   AU        0.428949    0.112143    0.575056     0.007504
PT2351   PT        0.464393    0.075726    0.574553     0.004505
PT2352   PT        0.465924    0.113158    0.537107     0.004505
PT2353   PT        0.499746    0.075986    0.535848     0.004505
PT2354   PT        0.501230    0.111549    0.575675     0.004505
PT2355   PT        0.538240    0.075569    0.577886     0.004505
AU2356   AU        0.535681    0.112317    0.537624     0.007504
PT2357   PT        0.572199    0.076005    0.538110     0.004505
AU2358   AU        0.573248    0.114353    0.576547     0.007504
AU2359   AU        0.607144    0.077362    0.574489     0.007504
PT2360   PT        0.606543    0.115678    0.537871     0.004505
AU2361   AU        0.641902    0.077000    0.535526     0.007504
PT2362   PT        0.643044    0.113593    0.574343     0.004505
AU2363   AU        0.678366    0.115545    0.534457     0.007504
PT2364   PT        0.107425    0.190525    0.534114     0.004505
PT2365   PT        0.141744    0.151479    0.535493     0.004505
AU2366   AU        0.143384    0.189711    0.576139     0.007504
PT2367   PT        0.177550    0.151685    0.574822     0.004505
PT2368   PT        0.178047    0.187707    0.535015     0.004505
AU2369   AU        0.212692    0.150608    0.537459     0.007504
AU2370   AU        0.211870    0.189305    0.575995     0.007504
AU2371   AU        0.248029    0.151952    0.574053     0.007504
AU2372   AU        0.246441    0.190505    0.537108     0.007504
AU2373   AU        0.285708    0.152291    0.538712     0.007504
PT2374   PT        0.281457    0.190376    0.577701     0.004505
PT2375   PT        0.321502    0.150875    0.575964     0.004505
AU2376   AU        0.323588    0.190366    0.535992     0.007504
PT2377   PT        0.358593    0.152567    0.534346     0.004505
AU2378   AU        0.356303    0.191703    0.576615     0.007504
AU2379   AU        0.393455    0.150499    0.575196     0.007504
AU2380   AU        0.392034    0.188850    0.537724     0.007504
AU2381   AU        0.427918    0.150069    0.535040     0.007504
PT2382   PT        0.428552    0.188495    0.576726     0.004505
AU2383   AU        0.464475    0.151315    0.576500     0.007504
AU2384   AU        0.465444    0.188707    0.536862     0.007504
PT2385   PT        0.501917    0.150653    0.535422     0.004505
PT2386   PT        0.500728    0.190031    0.574493     0.004505
PT2387   PT        0.536035    0.151578    0.575009     0.004505
AU2388   AU        0.535984    0.187671    0.535792     0.007504
AU2389   AU        0.571380    0.150148    0.538757     0.007504
PT2390   PT        0.572642    0.188157    0.578304     0.004505
PT2391   PT        0.608270    0.150886    0.577533     0.004505
PT2392   PT        0.608172    0.187969    0.538259     0.004505
PT2393   PT        0.643875    0.150962    0.536457     0.004505
PT2394   PT        0.643363    0.189080    0.575485     0.004505
PT2395   PT        0.679050    0.152681    0.573553     0.004505
AU2396   AU        0.677653    0.190771    0.536754     0.007504
AU2397   AU        0.712753    0.152867    0.533416     0.007504
PT2398   PT        0.712061    0.190681    0.573516     0.004505
PT2399   PT        0.750966    0.189579    0.533262     0.004505
AU2400   AU        0.038148    0.267079    0.534841     0.007504
PT2401   PT        0.074043    0.229655    0.534912     0.004505
AU2402   AU        0.072860    0.266593    0.572273     0.007504
PT2403   PT        0.107516    0.228984    0.574785     0.004505
PT2404   PT        0.106957    0.267144    0.536023     0.004505
AU2405   AU        0.142024    0.227550    0.535916     0.007504
PT2406   PT        0.141241    0.267174    0.575077     0.004505
AU2407   AU        0.177007    0.228261    0.576979     0.007504
AU2408   AU        0.176745    0.266112    0.536775     0.007504
AU2409   AU        0.212085    0.227405    0.537409     0.007504
AU2410   AU        0.211555    0.267215    0.574265     0.007504
AU2411   AU        0.248464    0.229446    0.574978     0.007504
AU2412   AU        0.249153    0.266758    0.536537     0.007504
PT2413   PT        0.283583    0.230372    0.536162     0.004505
PT2414   PT        0.283835    0.268749    0.576916     0.004505
PT2415   PT        0.317431    0.227770    0.575556     0.004505
PT2416   PT        0.320863    0.265696    0.535712     0.004505
PT2417   PT        0.358668    0.228669    0.538000     0.004505
AU2418   AU        0.359910    0.269260    0.575848     0.007504
AU2419   AU        0.395047    0.229857    0.575025     0.007504
AU2420   AU        0.393543    0.267866    0.536668     0.007504
PT2421   PT        0.428304    0.229052    0.535622     0.004505
AU2422   AU        0.429978    0.268090    0.574560     0.007504
PT2423   PT        0.465239    0.227942    0.572325     0.004505
AU2424   AU        0.464271    0.267994    0.535539     0.007504
AU2425   AU        0.501417    0.228661    0.535497     0.007504
AU2426   AU        0.500760    0.263701    0.576054     0.007504
AU2427   AU        0.537106    0.227260    0.574572     0.007504
AU2428   AU        0.534078    0.266937    0.534950     0.007504
PT2429   PT        0.570960    0.225714    0.537976     0.004505
AU2430   AU        0.570997    0.265987    0.574356     0.007504
AU2431   AU        0.607362    0.227616    0.572838     0.007504
AU2432   AU        0.606989    0.264906    0.535449     0.007504
PT2433   PT        0.643951    0.228414    0.539737     0.004505
PT2434   PT        0.644104    0.269220    0.574548     0.004505
PT2435   PT        0.678234    0.228749    0.577326     0.004505
PT2436   PT        0.680448    0.264231    0.537970     0.004505
PT2437   PT        0.715032    0.227792    0.536050     0.004505
AU2438   AU        0.715414    0.267627    0.576390     0.007504
PT2439   PT        0.748429    0.227386    0.575228     0.004505
PT2440   PT        0.749567    0.266929    0.535237     0.004505
PT2441   PT        0.783086    0.230530    0.536118     0.004505
AU2442   AU        0.783934    0.266166    0.574745     0.007504
AU2443   AU        0.818404    0.266344    0.535361     0.007504
AU2444   AU        0.038824    0.304658    0.575806     0.007504
PT2445   PT        0.037630    0.343291    0.537885     0.004505
AU2446   AU        0.072103    0.302479    0.536494     0.007504
PT2447   PT        0.072213    0.343179    0.575884     0.004505
AU2448   AU        0.106480    0.304825    0.576542     0.007504
PT2449   PT        0.106569    0.343948    0.535807     0.004505
PT2450   PT        0.139910    0.305774    0.538675     0.004505
AU2451   AU        0.140153    0.341845    0.576764     0.007504
AU2452   AU        0.175627    0.305568    0.576014     0.007504
PT2453   PT        0.176782    0.342445    0.536411     0.004505
AU2454   AU        0.214308    0.305174    0.535884     0.007504
AU2455   AU        0.211559    0.344533    0.575449     0.007504
PT2456   PT        0.246818    0.305777    0.575330     0.004505
AU2457   AU        0.251039    0.343723    0.536496     0.007504
AU2458   AU        0.286585    0.306178    0.536325     0.007504
PT2459   PT        0.287129    0.345050    0.574553     0.004505
AU2460   AU        0.322183    0.305256    0.573120     0.007504
AU2461   AU        0.321655    0.345841    0.536262     0.007504
AU2462   AU        0.356957    0.306078    0.536461     0.007504
PT2463   PT        0.359028    0.341442    0.575930     0.004505
AU2464   AU        0.394343    0.303890    0.576608     0.007504
AU2465   AU        0.392541    0.342618    0.535116     0.007504
PT2466   PT        0.428975    0.305892    0.535298     0.004505
AU2467   AU        0.427185    0.341883    0.576436     0.007504
AU2468   AU        0.466875    0.304653    0.574685     0.007504
AU2469   AU        0.463570    0.344027    0.537480     0.007504
AU2470   AU        0.501735    0.306369    0.536473     0.007504
AU2471   AU        0.499895    0.343169    0.575538     0.007504
AU2472   AU        0.535196    0.305653    0.574914     0.007504
PT2473   PT        0.536736    0.344583    0.536610     0.004505
AU2474   AU        0.572214    0.305718    0.535693     0.007504
AU2475   AU        0.572779    0.345439    0.575083     0.007504
AU2476   AU        0.606608    0.306332    0.578567     0.007504
AU2477   AU        0.607170    0.340988    0.536306     0.007504
PT2478   PT        0.643282    0.307570    0.536501     0.004505
PT2479   PT        0.641212    0.344364    0.577461     0.004505
AU2480   AU        0.679682    0.308692    0.579020     0.007504
AU2481   AU        0.681665    0.344892    0.536009     0.007504
PT2482   PT        0.717022    0.305222    0.537711     0.004505
PT2483   PT        0.717120    0.341899    0.576415     0.004505
PT2484   PT        0.752248    0.304869    0.576724     0.004505
PT2485   PT        0.751724    0.343994    0.538047     0.004505
AU2486   AU        0.784160    0.302876    0.537567     0.007504
AU2487   AU        0.785006    0.343620    0.578086     0.007504
PT2488   PT        0.818334    0.302845    0.578089     0.004505
PT2489   PT        0.818916    0.342401    0.540081     0.004505
PT2490   PT        0.038488    0.383470    0.576125     0.004505
PT2491   PT        0.036718    0.421277    0.537738     0.004505
PT2492   PT        0.071131    0.381913    0.536560     0.004505
PT2493   PT        0.072177    0.420670    0.574627     0.004505
AU2494   AU        0.106909    0.381822    0.574797     0.007504
AU2495   AU        0.107370    0.421492    0.537612     0.007504
AU2496   AU        0.141448    0.381842    0.537758     0.007504
PT2497   PT        0.141072    0.420540    0.573527     0.004505
PT2498   PT        0.175445    0.380843    0.575528     0.004505
AU2499   AU        0.177456    0.420978    0.538548     0.007504
AU2500   AU        0.212804    0.379211    0.538462     0.007504
AU2501   AU        0.213218    0.420312    0.577172     0.007504
AU2502   AU        0.249564    0.381148    0.575418     0.007504
AU2503   AU        0.245721    0.419734    0.536992     0.007504
AU2504   AU        0.284659    0.382115    0.535656     0.007504
AU2505   AU        0.283818    0.420935    0.577183     0.007504
AU2506   AU        0.320598    0.385954    0.576366     0.007504
AU2507   AU        0.319325    0.420861    0.535738     0.007504
AU2508   AU        0.356666    0.383102    0.535892     0.007504
AU2509   AU        0.357896    0.420833    0.575692     0.007504
AU2510   AU        0.393767    0.381372    0.573013     0.007504
PT2511   PT        0.391611    0.420584    0.536275     0.004505
AU2512   AU        0.427857    0.380516    0.536130     0.007504
AU2513   AU        0.428251    0.418646    0.573784     0.007504
AU2514   AU        0.466919    0.383659    0.574485     0.007504
AU2515   AU        0.464940    0.420385    0.537831     0.007504
PT2516   PT        0.500754    0.382604    0.535681     0.004505
PT2517   PT        0.498297    0.420794    0.576719     0.004505
AU2518   AU        0.535707    0.382072    0.575928     0.007504
AU2519   AU        0.539010    0.421356    0.536450     0.007504
AU2520   AU        0.573253    0.383215    0.537830     0.007504
AU2521   AU        0.572845    0.420956    0.574845     0.007504
AU2522   AU        0.607042    0.383317    0.578484     0.007504
AU2523   AU        0.608719    0.421803    0.537604     0.007504
AU2524   AU        0.642453    0.383304    0.539168     0.007504
AU2525   AU        0.643448    0.422113    0.574884     0.007504
PT2526   PT        0.681540    0.379115    0.576256     0.004505
AU2527   AU        0.679205    0.420037    0.537375     0.007504
AU2528   AU        0.716330    0.382529    0.535895     0.007504
PT2529   PT        0.715340    0.419191    0.576196     0.004505
PT2530   PT        0.751280    0.381638    0.577131     0.004505
AU2531   AU        0.751797    0.418634    0.536824     0.007504
AU2532   AU        0.786152    0.383533    0.539794     0.007504
PT2533   PT        0.785601    0.422019    0.575651     0.004505
PT2534   PT        0.818307    0.382396    0.578837     0.004505
AU2535   AU        0.820605    0.421738    0.537882     0.007504
PT2536   PT        0.002487    0.459912    0.535107     0.004505
AU2537   AU        0.036712    0.458579    0.575047     0.007504
PT2538   PT        0.037172    0.496971    0.535853     0.004505
AU2539   AU        0.071104    0.459945    0.535252     0.007504
PT2540   PT        0.070209    0.497437    0.574630     0.004505
AU2541   AU        0.105450    0.459520    0.576578     0.007504
AU2542   AU        0.106257    0.500000    0.536849     0.007504
PT2543   PT        0.140303    0.459924    0.535673     0.004505
AU2544   AU        0.142563    0.499598    0.575663     0.007504
PT2545   PT        0.175947    0.461222    0.574030     0.004505
AU2546   AU        0.177074    0.498547    0.536746     0.007504
AU2547   AU        0.211461    0.459170    0.538427     0.007504
AU2548   AU        0.212757    0.498239    0.573599     0.007504
PT2549   PT        0.248969    0.457905    0.573825     0.004505
AU2550   AU        0.249413    0.495871    0.534330     0.007504
PT2551   PT        0.284834    0.456769    0.537742     0.004505
PT2552   PT        0.281088    0.496691    0.574684     0.004505
PT2553   PT        0.317825    0.459034    0.578137     0.004505
PT2554   PT        0.314965    0.495841    0.534365     0.004505
AU2555   AU        0.355162    0.456107    0.534496     0.007504
AU2556   AU        0.362275    0.502826    0.578246     0.007504
AU2557   AU        0.391959    0.459828    0.574951     0.007504
AU2558   AU        0.397172    0.500442    0.538360     0.007504
AU2559   AU        0.429953    0.460073    0.537332     0.007504
AU2560   AU        0.429894    0.497433    0.576010     0.007504
AU2561   AU        0.464852    0.458525    0.577101     0.007504
AU2562   AU        0.464852    0.496414    0.539054     0.007504
AU2563   AU        0.499576    0.459806    0.536713     0.007504
PT2564   PT        0.501907    0.496715    0.579012     0.004505
AU2565   AU        0.536492    0.458079    0.575472     0.007504
AU2566   AU        0.534704    0.497481    0.534526     0.007504
AU2567   AU        0.572402    0.459627    0.537009     0.007504
AU2568   AU        0.574306    0.497965    0.575649     0.007504
AU2569   AU        0.610637    0.460619    0.574704     0.007504
PT2570   PT        0.610044    0.497756    0.536006     0.004505
AU2571   AU        0.643670    0.459253    0.538631     0.007504
PT2572   PT        0.645105    0.500288    0.574670     0.004505
AU2573   AU        0.680186    0.460374    0.574893     0.007504
PT2574   PT        0.681821    0.499860    0.538170     0.004505
AU2575   AU        0.715024    0.457044    0.538302     0.007504
PT2576   PT        0.715472    0.497055    0.573618     0.004505
PT2577   PT        0.751613    0.457425    0.575641     0.004505
PT2578   PT        0.751429    0.496731    0.538641     0.004505
AU2579   AU        0.786906    0.461054    0.536677     0.007504
AU2580   AU        0.787418    0.498084    0.576229     0.007504
AU2581   AU        0.819694    0.458621    0.577832     0.007504
PT2582   PT        0.820230    0.496948    0.537232     0.004505
PT2583   PT        0.855290    0.460652    0.539200     0.004505
PT2584   PT        0.037284    0.536930    0.576984     0.004505
AU2585   AU        0.037066    0.577680    0.538545     0.007504
AU2586   AU        0.070160    0.536338    0.537080     0.007504
PT2587   PT        0.071656    0.576165    0.574843     0.004505
PT2588   PT        0.107040    0.538590    0.577209     0.004505
PT2589   PT        0.105168    0.575322    0.536861     0.004505
PT2590   PT        0.141587    0.537809    0.537598     0.004505
AU2591   AU        0.142211    0.576477    0.579300     0.007504
AU2592   AU        0.176396    0.539396    0.574087     0.007504
PT2593   PT        0.175404    0.576122    0.536744     0.004505
AU2594   AU        0.213657    0.537440    0.535320     0.007504
AU2595   AU        0.213903    0.575373    0.575557     0.007504
AU2596   AU        0.247251    0.536588    0.573815     0.007504
AU2597   AU        0.246370    0.575890    0.535315     0.007504
AU2598   AU        0.283563    0.536984    0.535105     0.007504
AU2599   AU        0.280939    0.576607    0.574561     0.007504
AU2600   AU        0.316662    0.529431    0.574488     0.007504
PT2601   PT        0.316697    0.575722    0.532903     0.004505
AU2602   AU        0.363034    0.537962    0.541690     0.007504
AU2603   AU        0.363274    0.576129    0.579229     0.007504
AU2604   AU        0.398470    0.537388    0.578501     0.007504
AU2605   AU        0.397700    0.575050    0.541994     0.007504
AU2606   AU        0.432031    0.534892    0.539738     0.007504
AU2607   AU        0.431714    0.575320    0.579547     0.007504
AU2608   AU        0.467620    0.536071    0.575985     0.007504
AU2609   AU        0.465052    0.574910    0.537792     0.007504
AU2610   AU        0.500505    0.535530    0.536387     0.007504
AU2611   AU        0.499427    0.575693    0.576991     0.007504
AU2612   AU        0.536310    0.535079    0.578075     0.007504
AU2613   AU        0.538257    0.577364    0.538135     0.007504
AU2614   AU        0.573307    0.533191    0.535562     0.007504
PT2615   PT        0.573774    0.577456    0.575993     0.004505
PT2616   PT        0.608198    0.539425    0.575736     0.004505
AU2617   AU        0.611737    0.575796    0.538107     0.007504
AU2618   AU        0.646978    0.538124    0.537747     0.007504
PT2619   PT        0.644251    0.575300    0.577169     0.004505
AU2620   AU        0.680977    0.537848    0.577673     0.007504
PT2621   PT        0.680292    0.576963    0.537717     0.004505
AU2622   AU        0.716056    0.538617    0.538424     0.007504
PT2623   PT        0.715782    0.576335    0.577687     0.004505
PT2624   PT        0.750799    0.536086    0.575153     0.004505
PT2625   PT        0.751567    0.576295    0.535965     0.004505
AU2626   AU        0.786123    0.534007    0.537355     0.007504
AU2627   AU        0.786362    0.574986    0.574943     0.007504
AU2628   AU        0.819164    0.537016    0.577085     0.007504
AU2629   AU        0.820000    0.576388    0.539148     0.007504
PT2630   PT        0.037077    0.614632    0.574323     0.004505
AU2631   AU        0.038575    0.651394    0.535744     0.007504
PT2632   PT        0.072419    0.613745    0.536802     0.004505
AU2633   AU        0.072420    0.649579    0.573174     0.007504
PT2634   PT        0.106488    0.613146    0.575767     0.004505
PT2635   PT        0.107017    0.650568    0.536226     0.004505
AU2636   AU        0.141504    0.614403    0.536982     0.007504
PT2637   PT        0.139736    0.649988    0.574766     0.004505
PT2638   PT        0.178014    0.611640    0.576852     0.004505
AU2639   AU        0.176437    0.653211    0.536207     0.007504
AU2640   AU        0.211038    0.613388    0.536199     0.007504
PT2641   PT        0.210116    0.651201    0.576204     0.004505
AU2642   AU        0.247338    0.615205    0.575710     0.007504
AU2643   AU        0.247164    0.651310    0.534697     0.007504
PT2644   PT        0.282610    0.613669    0.531229     0.004505
PT2645   PT        0.281293    0.654139    0.576958     0.004505
AU2646   AU        0.329250    0.614180    0.581116     0.007504
PT2647   PT        0.316046    0.653279    0.532091     0.004505
AU2648   AU        0.351211    0.615582    0.530267     0.007504
PT2649   PT        0.362769    0.651368    0.578568     0.004505
PT2650   PT        0.397997    0.614356    0.578014     0.004505
AU2651   AU        0.397691    0.651858    0.540338     0.007504
AU2652   AU        0.432620    0.613560    0.538853     0.007504
AU2653   AU        0.429971    0.653488    0.577869     0.007504
AU2654   AU        0.465338    0.614286    0.575923     0.007504
AU2655   AU        0.464226    0.651956    0.538029     0.007504
AU2656   AU        0.500271    0.614381    0.537221     0.007504
AU2657   AU        0.499996    0.651879    0.575917     0.007504
PT2658   PT        0.536364    0.615200    0.576454     0.004505
PT2659   PT        0.534717    0.652468    0.539250     0.004505
AU2660   AU        0.571734    0.616207    0.538193     0.007504
PT2661   PT        0.572311    0.655147    0.576255     0.004505
AU2662   AU        0.610496    0.612926    0.574763     0.007504
PT2663   PT        0.608748    0.652009    0.537187     0.004505
AU2664   AU        0.644687    0.614936    0.538308     0.007504
AU2665   AU        0.646444    0.652104    0.575788     0.007504
AU2666   AU        0.679239    0.614147    0.576099     0.007504
AU2667   AU        0.680931    0.652540    0.536933     0.007504
PT2668   PT        0.716152    0.614298    0.538754     0.004505
AU2669   AU        0.715368    0.653380    0.576101     0.007504
PT2670   PT        0.750957    0.614615    0.575362     0.004505
PT2671   PT        0.752298    0.651965    0.535176     0.004505
PT2672   PT        0.786341    0.613459    0.535538     0.004505
PT2673   PT        0.787268    0.653213    0.572936     0.004505
PT2674   PT        0.818939    0.612533    0.575586     0.004505
PT2675   PT        0.820906    0.650860    0.536197     0.004505
AU2676   AU        0.072789    0.688639    0.535597     0.007504
PT2677   PT        0.107043    0.688861    0.572818     0.004505
PT2678   PT        0.107430    0.729770    0.533940     0.004505
PT2679   PT        0.140666    0.691597    0.534721     0.004505
AU2680   AU        0.141502    0.726794    0.575034     0.007504
PT2681   PT        0.177798    0.690413    0.573914     0.004505
AU2682   AU        0.175902    0.730349    0.536954     0.007504
PT2683   PT        0.212216    0.690707    0.537367     0.004505
AU2684   AU        0.212119    0.729529    0.575276     0.007504
AU2685   AU        0.249242    0.691119    0.575561     0.007504
AU2686   AU        0.249305    0.730750    0.536398     0.007504
PT2687   PT        0.283171    0.693247    0.537229     0.004505
PT2688   PT        0.284457    0.731434    0.577092     0.004505
AU2689   AU        0.318260    0.689233    0.574712     0.007504
AU2690   AU        0.320313    0.731709    0.540899     0.007504
AU2691   AU        0.356852    0.695268    0.538042     0.007504
AU2692   AU        0.355898    0.732506    0.577150     0.007504
AU2693   AU        0.392608    0.692449    0.576049     0.007504
PT2694   PT        0.394352    0.731003    0.538030     0.004505
AU2695   AU        0.429918    0.692592    0.539804     0.007504
AU2696   AU        0.427814    0.730638    0.576407     0.007504
AU2697   AU        0.465444    0.690545    0.575766     0.007504
AU2698   AU        0.464708    0.729818    0.537700     0.007504
AU2699   AU        0.502213    0.691299    0.537316     0.007504
AU2700   AU        0.501343    0.729637    0.576054     0.007504
AU2701   AU        0.537587    0.691284    0.576879     0.007504
PT2702   PT        0.538456    0.728278    0.536254     0.004505
AU2703   AU        0.573616    0.691076    0.538406     0.007504
AU2704   AU        0.573849    0.729390    0.576337     0.007504
AU2705   AU        0.609451    0.690050    0.578095     0.007504
PT2706   PT        0.610068    0.730399    0.538589     0.004505
AU2707   AU        0.643735    0.690346    0.539356     0.007504
PT2708   PT        0.645278    0.729601    0.575396     0.004505
PT2709   PT        0.681274    0.690472    0.574774     0.004505
PT2710   PT        0.679899    0.729267    0.536753     0.004505
AU2711   AU        0.717970    0.688643    0.536472     0.007504
AU2712   AU        0.713211    0.729330    0.574731     0.007504
PT2713   PT        0.751450    0.690231    0.573604     0.004505
PT2714   PT        0.750599    0.728348    0.535556     0.004505
PT2715   PT        0.785893    0.688739    0.535972     0.004505
AU2716   AU        0.143946    0.768453    0.535067     0.007504
PT2717   PT        0.176848    0.767410    0.576079     0.004505
PT2718   PT        0.179677    0.805995    0.535237     0.004505
AU2719   AU        0.211841    0.767253    0.537344     0.007504
PT2720   PT        0.213464    0.804573    0.574582     0.004505
AU2721   AU        0.247145    0.766460    0.573576     0.007504
AU2722   AU        0.247702    0.804983    0.536304     0.007504
AU2723   AU        0.283237    0.768623    0.539116     0.007504
AU2724   AU        0.284558    0.806127    0.575330     0.007504
PT2725   PT        0.318261    0.769179    0.577567     0.004505
PT2726   PT        0.319488    0.806010    0.537837     0.004505
PT2727   PT        0.357024    0.767404    0.539248     0.004505
AU2728   AU        0.356509    0.806475    0.576280     0.007504
PT2729   PT        0.392790    0.769065    0.576318     0.004505
PT2730   PT        0.391804    0.806024    0.538474     0.004505
AU2731   AU        0.429394    0.769812    0.539036     0.007504
AU2732   AU        0.429076    0.806357    0.575408     0.007504
AU2733   AU        0.466011    0.767038    0.577084     0.007504
PT2734   PT        0.466062    0.804756    0.539450     0.004505
AU2735   AU        0.502383    0.767104    0.535703     0.007504
PT2736   PT        0.501732    0.807609    0.577329     0.004505
PT2737   PT        0.537900    0.768343    0.575910     0.004505
AU2738   AU        0.537763    0.806668    0.539727     0.007504
PT2739   PT        0.573446    0.767422    0.536869     0.004505
PT2740   PT        0.572898    0.806163    0.574540     0.004505
AU2741   AU        0.610110    0.768357    0.576701     0.007504
PT2742   PT        0.609203    0.803257    0.535268     0.004505
AU2743   AU        0.645632    0.766992    0.537867     0.007504
AU2744   AU        0.646020    0.805380    0.574139     0.007504
PT2745   PT        0.680901    0.768165    0.576049     0.004505
AU2746   AU        0.679930    0.806356    0.535794     0.007504
PT2747   PT        0.713498    0.766917    0.535535     0.004505
PT2748   PT        0.213505    0.842351    0.536176     0.004505
AU2749   AU        0.247818    0.842381    0.572236     0.007504
AU2750   AU        0.251297    0.878990    0.536265     0.007504
PT2751   PT        0.284451    0.842685    0.538155     0.004505
AU2752   AU        0.284348    0.878451    0.576658     0.007504
PT2753   PT        0.319110    0.842450    0.575718     0.004505
AU2754   AU        0.321197    0.879472    0.538290     0.007504
PT2755   PT        0.355389    0.842279    0.538396     0.004505
PT2756   PT        0.354096    0.879328    0.576108     0.004505
AU2757   AU        0.391932    0.842065    0.576001     0.007504
PT2758   PT        0.391094    0.878233    0.535923     0.004505
PT2759   PT        0.428827    0.842159    0.538075     0.004505
AU2760   AU        0.428646    0.877933    0.574302     0.007504
AU2761   AU        0.465776    0.843608    0.576379     0.007504
PT2762   PT        0.464750    0.878528    0.537401     0.004505
AU2763   AU        0.502947    0.841941    0.539390     0.007504
PT2764   PT        0.501804    0.879602    0.578996     0.004505
PT2765   PT        0.538306    0.844873    0.578074     0.004505
PT2766   PT        0.537776    0.879170    0.537547     0.004505
PT2767   PT        0.573754    0.843542    0.537300     0.004505
PT2768   PT        0.573400    0.880330    0.575980     0.004505
PT2769   PT        0.608823    0.842707    0.574329     0.004505
PT2770   PT        0.608365    0.880492    0.537342     0.004505
PT2771   PT        0.642650    0.841342    0.535864     0.004505
AU2772   AU        0.428923    0.913986    0.535397     0.007504
PT2773   PT        0.319689    0.041408    0.611398     0.004505
AU2774   AU        0.358709    0.039185    0.653482     0.007504
PT2775   PT        0.393473    0.040152    0.615672     0.004505
AU2776   AU        0.428867    0.039833    0.652285     0.007504
PT2777   PT        0.463543    0.040686    0.613891     0.004505
PT2778   PT        0.499966    0.042091    0.651122     0.004505
PT2779   PT        0.535733    0.039447    0.613954     0.004505
PT2780   PT        0.176543    0.115298    0.616119     0.004505
PT2781   PT        0.215462    0.115375    0.653302     0.004505
AU2782   AU        0.251414    0.078152    0.651525     0.007504
PT2783   PT        0.248345    0.115516    0.613434     0.004505
PT2784   PT        0.283321    0.077371    0.611141     0.004505
AU2785   AU        0.284589    0.114183    0.654108     0.007504
PT2786   PT        0.297133    0.060564    0.656458     0.004505
PT2787   PT        0.320318    0.113846    0.614095     0.004505
PT2788   PT        0.356046    0.075349    0.615378     0.004505
PT2789   PT        0.357984    0.112878    0.651932     0.004505
AU2790   AU        0.392400    0.076754    0.653012     0.007504
AU2791   AU        0.394076    0.112311    0.614944     0.007504
PT2792   PT        0.428070    0.075805    0.613993     0.004505
AU2793   AU        0.428829    0.112972    0.652999     0.007504
PT2794   PT        0.465182    0.078112    0.651220     0.004505
PT2795   PT        0.465261    0.112762    0.613917     0.004505
AU2796   AU        0.500810    0.076659    0.612233     0.007504
PT2797   PT        0.500342    0.114045    0.651190     0.004505
AU2798   AU        0.535456    0.078476    0.649316     0.007504
PT2799   PT        0.535517    0.113120    0.613785     0.004505
PT2800   PT        0.571235    0.076348    0.615363     0.004505
AU2801   AU        0.571278    0.113752    0.652746     0.007504
PT2802   PT        0.607664    0.076431    0.652474     0.004505
PT2803   PT        0.605667    0.113329    0.615504     0.004505
PT2804   PT        0.641972    0.114896    0.652362     0.004505
PT2805   PT        0.678165    0.115545    0.611980     0.004505
PT2806   PT        0.109371    0.193091    0.615527     0.004505
AU2807   AU        0.144117    0.154289    0.616916     0.007504
PT2808   PT        0.145031    0.190722    0.653948     0.004505
PT2809   PT        0.178015    0.153669    0.654921     0.004505
PT2810   PT        0.178643    0.190239    0.615770     0.004505
AU2811   AU        0.212413    0.151727    0.613030     0.007504
AU2812   AU        0.213948    0.188943    0.651915     0.007504
AU2813   AU        0.249241    0.152840    0.652483     0.007504
AU2814   AU        0.247364    0.190231    0.614068     0.007504
AU2815   AU        0.285790    0.150950    0.614039     0.007504
PT2816   PT        0.283775    0.190855    0.651763     0.004505
PT2817   PT        0.320968    0.152745    0.653505     0.004505
PT2818   PT        0.318540    0.189370    0.615580     0.004505
PT2819   PT        0.357686    0.148232    0.614357     0.004505
PT2820   PT        0.357373    0.186628    0.650336     0.004505
AU2821   AU        0.392482    0.151183    0.653781     0.007504
PT2822   PT        0.392585    0.190167    0.613140     0.004505
PT2823   PT        0.427354    0.148809    0.614147     0.004505
AU2824   AU        0.427521    0.188383    0.650889     0.007504
PT2825   PT        0.464642    0.151416    0.651622     0.004505
AU2826   AU        0.464584    0.188177    0.614199     0.007504
AU2827   AU        0.500940    0.151195    0.613588     0.007504
AU2828   AU        0.500290    0.188811    0.654081     0.007504
PT2829   PT        0.537554    0.151360    0.654831     0.004505
PT2830   PT        0.536349    0.188620    0.615585     0.004505
PT2831   PT        0.573643    0.152406    0.616412     0.004505
AU2832   AU        0.572029    0.192437    0.655275     0.007504
AU2833   AU        0.609140    0.151724    0.652110     0.007504
PT2834   PT        0.609637    0.189955    0.614084     0.004505
PT2835   PT        0.643772    0.151581    0.613003     0.004505
AU2836   AU        0.643495    0.189789    0.651691     0.007504
PT2837   PT        0.676785    0.153615    0.650291     0.004505
PT2838   PT        0.679080    0.190844    0.614195     0.004505
AU2839   AU        0.714022    0.154828    0.614809     0.007504
AU2840   AU        0.714209    0.191953    0.651704     0.007504
PT2841   PT        0.748280    0.193220    0.612807     0.004505
AU2842   AU        0.074405    0.266988    0.653271     0.007504
PT2843   PT        0.108664    0.230717    0.653134     0.004505
PT2844   PT        0.109139    0.267206    0.613951     0.004505
AU2845   AU        0.143174    0.229450    0.615537     0.007504
PT2846   PT        0.143416    0.267964    0.653055     0.004505
PT2847   PT        0.177146    0.229106    0.652889     0.004505
PT2848   PT        0.179356    0.268165    0.616451     0.004505
AU2849   AU        0.214347    0.229348    0.614513     0.007504
PT2850   PT        0.213325    0.267479    0.655019     0.004505
AU2851   AU        0.248167    0.228968    0.653545     0.007504
PT2852   PT        0.246924    0.266096    0.617528     0.004505
AU2853   AU        0.285007    0.229961    0.615968     0.007504
PT2854   PT        0.282705    0.267146    0.656050     0.004505
PT2855   PT        0.319515    0.231431    0.651412     0.004505
AU2856   AU        0.321771    0.266888    0.611333     0.007504
PT2857   PT        0.358432    0.228302    0.612607     0.004505
PT2858   PT        0.359792    0.266186    0.651331     0.004505
AU2859   AU        0.392973    0.225834    0.651825     0.007504
AU2860   AU        0.394695    0.267150    0.614802     0.007504
PT2861   PT        0.428635    0.227844    0.612511     0.004505
PT2862   PT        0.427681    0.265086    0.650834     0.004505
AU2863   AU        0.464460    0.227138    0.649454     0.007504
PT2864   PT        0.463933    0.264819    0.610189     0.004505
PT2865   PT        0.500686    0.228608    0.612603     0.004505
PT2866   PT        0.498500    0.265505    0.649879     0.004505
PT2867   PT        0.537067    0.228176    0.654091     0.004505
AU2868   AU        0.537672    0.267779    0.613994     0.007504
PT2869   PT        0.573843    0.226401    0.615617     0.004505
AU2870   AU        0.573861    0.268640    0.654459     0.007504
AU2871   AU        0.609471    0.229835    0.653908     0.007504
PT2872   PT        0.608354    0.267738    0.615370     0.004505
AU2873   AU        0.643904    0.228261    0.611702     0.007504
PT2874   PT        0.644304    0.266858    0.654316     0.004505
PT2875   PT        0.678675    0.228439    0.652874     0.004505
PT2876   PT        0.676963    0.266339    0.616046     0.004505
AU2877   AU        0.715237    0.229582    0.614375     0.007504
PT2878   PT        0.714554    0.267795    0.652640     0.004505
PT2879   PT        0.747544    0.230244    0.651483     0.004505
PT2880   PT        0.749579    0.267447    0.615282     0.004505
AU2881   AU        0.784605    0.268943    0.654899     0.007504
PT2882   PT        0.037347    0.342239    0.614224     0.004505
PT2883   PT        0.072440    0.302928    0.613874     0.004505
PT2884   PT        0.071960    0.343792    0.652377     0.004505
PT2885   PT        0.108081    0.304637    0.652450     0.004505
AU2886   AU        0.105568    0.340972    0.614455     0.007504
AU2887   AU        0.141969    0.304481    0.614189     0.007504
PT2888   PT        0.142401    0.341547    0.650701     0.004505
AU2889   AU        0.179001    0.304867    0.654278     0.007504
AU2890   AU        0.177219    0.342289    0.613393     0.007504
PT2891   PT        0.213641    0.307104    0.611871     0.004505
AU2892   AU        0.213920    0.342852    0.652944     0.007504
AU2893   AU        0.249480    0.304789    0.654712     0.007504
AU2894   AU        0.248342    0.344185    0.616009     0.007504
AU2895   AU        0.285192    0.308328    0.613239     0.007504
AU2896   AU        0.286097    0.345600    0.652547     0.007504
PT2897   PT        0.320493    0.303826    0.651646     0.004505
AU2898   AU        0.321981    0.344036    0.614882     0.007504
AU2899   AU        0.356268    0.304188    0.612234     0.007504
AU2900   AU        0.355525    0.345259    0.652636     0.007504
AU2901   AU        0.392618    0.306239    0.652356     0.007504
AU2902   AU        0.393966    0.343951    0.615464     0.007504
AU2903   AU        0.429532    0.304776    0.612797     0.007504
AU2904   AU        0.427678    0.344564    0.651662     0.007504
AU2905   AU        0.463772    0.307434    0.653662     0.007504
AU2906   AU        0.465462    0.344132    0.612091     0.007504
AU2907   AU        0.501826    0.305649    0.612338     0.007504
AU2908   AU        0.497708    0.345123    0.652676     0.007504
AU2909   AU        0.538535    0.306779    0.652742     0.007504
AU2910   AU        0.537012    0.345524    0.614290     0.007504
PT2911   PT        0.570716    0.306119    0.613049     0.004505
AU2912   AU        0.571790    0.344335    0.653496     0.007504
AU2913   AU        0.609582    0.306434    0.652610     0.007504
AU2914   AU        0.607270    0.345207    0.615783     0.007504
AU2915   AU        0.645314    0.306434    0.614679     0.007504
PT2916   PT        0.643089    0.342766    0.652754     0.004505
AU2917   AU        0.678870    0.306661    0.652968     0.007504
AU2918   AU        0.681108    0.345151    0.615966     0.007504
AU2919   AU        0.715178    0.306677    0.616582     0.007504
AU2920   AU        0.715081    0.344741    0.653324     0.007504
PT2921   PT        0.748426    0.304763    0.654417     0.004505
PT2922   PT        0.750427    0.344393    0.615938     0.004505
PT2923   PT        0.784327    0.305383    0.616416     0.004505
PT2924   PT        0.783964    0.343681    0.651503     0.004505
AU2925   AU        0.818794    0.343094    0.614059     0.007504
AU2926   AU        0.037880    0.381749    0.648717     0.007504
AU2927   AU        0.037722    0.423210    0.613592     0.007504
AU2928   AU        0.072151    0.382231    0.613210     0.007504
PT2929   PT        0.073053    0.421203    0.651127     0.004505
AU2930   AU        0.108379    0.381887    0.653133     0.007504
AU2931   AU        0.106382    0.419456    0.614608     0.007504
PT2932   PT        0.140700    0.380524    0.614071     0.004505
AU2933   AU        0.142704    0.420203    0.654611     0.007504
PT2934   PT        0.178056    0.378950    0.653512     0.004505
AU2935   AU        0.175892    0.419572    0.616005     0.007504
PT2936   PT        0.214754    0.384213    0.615746     0.004505
AU2937   AU        0.212170    0.419189    0.654429     0.007504
AU2938   AU        0.248291    0.382349    0.652882     0.007504
AU2939   AU        0.248858    0.421420    0.615514     0.007504
AU2940   AU        0.282614    0.380207    0.613421     0.007504
AU2941   AU        0.284062    0.419551    0.653857     0.007504
AU2942   AU        0.321630    0.383595    0.650719     0.007504
AU2943   AU        0.321485    0.423900    0.614628     0.007504
AU2944   AU        0.354633    0.381354    0.613800     0.007504
PT2945   PT        0.357574    0.418779    0.653247     0.004505
AU2946   AU        0.394861    0.383901    0.651433     0.007504
AU2947   AU        0.392563    0.420681    0.613682     0.007504
PT2948   PT        0.430963    0.382052    0.614807     0.004505
AU2949   AU        0.428622    0.422860    0.652911     0.007504
AU2950   AU        0.465582    0.384197    0.650661     0.007504
AU2951   AU        0.465218    0.421747    0.614047     0.007504
AU2952   AU        0.501020    0.382262    0.614043     0.007504
PT2953   PT        0.502694    0.420324    0.652838     0.004505
PT2954   PT        0.534706    0.380970    0.652494     0.004505
AU2955   AU        0.536456    0.418998    0.614327     0.007504
AU2956   AU        0.572805    0.383140    0.616603     0.007504
PT2957   PT        0.570597    0.420738    0.653829     0.004505
AU2958   AU        0.608042    0.383058    0.654051     0.007504
PT2959   PT        0.608060    0.421352    0.616537     0.004505
AU2960   AU        0.644943    0.380598    0.614856     0.007504
PT2961   PT        0.641830    0.420210    0.653676     0.004505
PT2962   PT        0.679132    0.380217    0.653208     0.004505
PT2963   PT        0.681581    0.419463    0.615396     0.004505
PT2964   PT        0.716065    0.381601    0.614614     0.004505
AU2965   AU        0.714941    0.420710    0.653008     0.007504
PT2966   PT        0.749816    0.382014    0.652513     0.004505
AU2967   AU        0.751154    0.421702    0.614874     0.007504
PT2968   PT        0.784942    0.382862    0.615567     0.004505
PT2969   PT        0.785811    0.420107    0.653238     0.004505
PT2970   PT        0.818092    0.381545    0.651094     0.004505
PT2971   PT        0.818274    0.421806    0.615105     0.004505
PT2972   PT        0.039184    0.462297    0.652176     0.004505
AU2973   AU        0.036852    0.499397    0.615715     0.007504
AU2974   AU        0.071893    0.460840    0.613639     0.007504
AU2975   AU        0.073191    0.498659    0.651157     0.007504
PT2976   PT        0.107838    0.458693    0.652066     0.004505
PT2977   PT        0.106105    0.499313    0.612961     0.004505
AU2978   AU        0.140962    0.459684    0.614336     0.007504
PT2979   PT        0.142116    0.496701    0.651944     0.004505
PT2980   PT        0.178189    0.459387    0.654749     0.004505
AU2981   AU        0.178911    0.496600    0.614586     0.007504
PT2982   PT        0.214285    0.457259    0.617238     0.004505
PT2983   PT        0.211787    0.496811    0.653491     0.004505
AU2984   AU        0.248803    0.461321    0.653469     0.007504
AU2985   AU        0.246530    0.497718    0.615131     0.007504
AU2986   AU        0.282663    0.458971    0.616309     0.007504
AU2987   AU        0.284678    0.498567    0.653607     0.007504
AU2988   AU        0.322289    0.459099    0.652467     0.007504
AU2989   AU        0.317573    0.496145    0.616488     0.007504
AU2990   AU        0.358104    0.461592    0.614620     0.007504
AU2991   AU        0.357928    0.499747    0.650918     0.007504
AU2992   AU        0.392893    0.457962    0.653203     0.007504
AU2993   AU        0.394717    0.497301    0.614980     0.007504
AU2994   AU        0.427903    0.459545    0.615853     0.007504
AU2995   AU        0.430271    0.497871    0.653256     0.007504
AU2996   AU        0.466458    0.459924    0.652354     0.007504
PT2997   PT        0.464962    0.496823    0.614046     0.004505
AU2998   AU        0.502986    0.459059    0.615796     0.007504
AU2999   AU        0.500935    0.497753    0.651370     0.007504
AU3000   AU        0.535930    0.459376    0.655051     0.007504
PT3001   PT        0.537468    0.498542    0.617736     0.004505
AU3002   AU        0.574103    0.458116    0.614024     0.007504
PT3003   PT        0.575100    0.498336    0.653163     0.004505
PT3004   PT        0.607288    0.458190    0.654700     0.004505
AU3005   AU        0.610396    0.497984    0.616594     0.007504
PT3006   PT        0.644678    0.457736    0.614705     0.004505
PT3007   PT        0.646984    0.497198    0.649890     0.004505
AU3008   AU        0.681167    0.459278    0.651779     0.007504
AU3009   AU        0.680692    0.497366    0.613199     0.007504
AU3010   AU        0.717331    0.459238    0.615104     0.007504
AU3011   AU        0.715625    0.497039    0.653294     0.007504
PT3012   PT        0.750158    0.459651    0.654097     0.004505
PT3013   PT        0.750847    0.499138    0.614571     0.004505
PT3014   PT        0.784584    0.460332    0.615109     0.004505
AU3015   AU        0.786113    0.500653    0.653301     0.007504
PT3016   PT        0.859827    0.460842    0.690105     0.004505
PT3017   PT        0.819963    0.500526    0.615521     0.004505
PT3018   PT        0.037334    0.537924    0.651094     0.004505
AU3019   AU        0.036285    0.575120    0.611481     0.007504
PT3020   PT        0.071962    0.538097    0.613156     0.004505
PT3021   PT        0.071578    0.573342    0.649959     0.004505
PT3022   PT        0.106477    0.538048    0.649686     0.004505
AU3023   AU        0.106189    0.575024    0.612657     0.007504
PT3024   PT        0.142095    0.538158    0.615971     0.004505
PT3025   PT        0.140060    0.574877    0.653093     0.004505
AU3026   AU        0.176321    0.538215    0.654300     0.007504
AU3027   AU        0.175518    0.574712    0.616448     0.007504
PT3028   PT        0.209533    0.535893    0.614057     0.004505
AU3029   AU        0.213699    0.574327    0.655578     0.007504
AU3030   AU        0.247139    0.534142    0.651626     0.007504
AU3031   AU        0.247716    0.574546    0.613630     0.007504
PT3032   PT        0.281498    0.534168    0.612697     0.004505
PT3033   PT        0.280648    0.577008    0.652208     0.004505
PT3034   PT        0.323516    0.535013    0.651690     0.004505
AU3035   AU        0.328074    0.576068    0.617473     0.007504
PT3036   PT        0.362018    0.538068    0.616752     0.004505
AU3037   AU        0.361229    0.575916    0.655919     0.007504
AU3038   AU        0.396664    0.537320    0.653657     0.007504
AU3039   AU        0.395585    0.573978    0.615953     0.007504
AU3040   AU        0.432124    0.537603    0.614780     0.007504
AU3041   AU        0.430625    0.575143    0.653865     0.007504
AU3042   AU        0.466961    0.537158    0.653769     0.007504
AU3043   AU        0.465322    0.576594    0.615990     0.007504
AU3044   AU        0.499281    0.537228    0.615655     0.007504
AU3045   AU        0.502561    0.575930    0.654409     0.007504
AU3046   AU        0.536213    0.537617    0.653503     0.007504
AU3047   AU        0.535124    0.574741    0.613937     0.007504
AU3048   AU        0.575008    0.536452    0.613189     0.007504
PT3049   PT        0.570581    0.576896    0.653390     0.004505
AU3050   AU        0.608451    0.535976    0.652434     0.007504
PT3051   PT        0.609221    0.577308    0.615197     0.004505
AU3052   AU        0.643095    0.536423    0.613376     0.007504
PT3053   PT        0.644968    0.576548    0.651324     0.004505
PT3054   PT        0.679572    0.536670    0.652366     0.004505
PT3055   PT        0.681924    0.574058    0.613947     0.004505
AU3056   AU        0.716596    0.535693    0.615166     0.007504
AU3057   AU        0.715142    0.576295    0.652815     0.007504
AU3058   AU        0.750446    0.535617    0.654108     0.007504
AU3059   AU        0.750580    0.575408    0.615789     0.007504
AU3060   AU        0.785594    0.538424    0.616148     0.007504
PT3061   PT        0.784842    0.574437    0.652596     0.004505
PT3062   PT        0.819792    0.538474    0.654396     0.004505
PT3063   PT        0.819834    0.573828    0.616105     0.004505
PT3064   PT        0.071418    0.612618    0.615428     0.004505
PT3065   PT        0.073943    0.651939    0.653517     0.004505
AU3066   AU        0.105687    0.611859    0.653225     0.007504
PT3067   PT        0.106478    0.652556    0.612901     0.004505
PT3068   PT        0.141651    0.614153    0.614558     0.004505
AU3069   AU        0.144053    0.653054    0.653051     0.007504
PT3070   PT        0.177230    0.614014    0.651926     0.004505
AU3071   AU        0.176201    0.652437    0.613268     0.007504
PT3072   PT        0.213555    0.613877    0.616398     0.004505
PT3073   PT        0.214249    0.652996    0.653417     0.004505
AU3074   AU        0.247764    0.614656    0.653428     0.007504
AU3075   AU        0.247975    0.653340    0.613424     0.007504
PT3076   PT        0.278907    0.614968    0.614201     0.004505
AU3077   AU        0.282715    0.653557    0.651681     0.007504
PT3078   PT        0.314235    0.614938    0.651392     0.004505
AU3079   AU        0.316670    0.652868    0.613818     0.007504
PT3080   PT        0.364402    0.612569    0.617537     0.004505
PT3081   PT        0.361935    0.650684    0.656004     0.004505
AU3082   AU        0.396187    0.613105    0.656900     0.007504
AU3083   AU        0.396067    0.652825    0.616519     0.007504
AU3084   AU        0.429423    0.614391    0.617403     0.007504
AU3085   AU        0.429496    0.652634    0.656796     0.007504
AU3086   AU        0.465501    0.612797    0.653960     0.007504
AU3087   AU        0.465728    0.652252    0.614355     0.007504
AU3088   AU        0.501683    0.615379    0.615142     0.007504
PT3089   PT        0.500219    0.651003    0.656358     0.004505
AU3090   AU        0.537629    0.615646    0.653056     0.007504
AU3091   AU        0.539110    0.653525    0.616229     0.007504
AU3092   AU        0.572724    0.615833    0.613706     0.007504
PT3093   PT        0.573813    0.652409    0.653639     0.004505
PT3094   PT        0.610037    0.615389    0.654015     0.004505
AU3095   AU        0.608456    0.653165    0.614218     0.007504
PT3096   PT        0.644952    0.613845    0.616163     0.004505
AU3097   AU        0.644812    0.652921    0.653919     0.007504
PT3098   PT        0.680097    0.613451    0.654694     0.004505
AU3099   AU        0.679276    0.651230    0.614176     0.007504
AU3100   AU        0.714116    0.614946    0.615708     0.007504
AU3101   AU        0.713637    0.651694    0.653118     0.007504
PT3102   PT        0.748384    0.613819    0.651508     0.004505
PT3103   PT        0.748787    0.652957    0.615836     0.004505
PT3104   PT        0.785105    0.611770    0.614634     0.004505
AU3105   AU        0.785120    0.649251    0.652699     0.007504
AU3106   AU        0.109349    0.689586    0.653211     0.007504
PT3107   PT        0.107820    0.728320    0.616022     0.004505
AU3108   AU        0.142185    0.690131    0.612785     0.007504
PT3109   PT        0.144271    0.727283    0.652634     0.004505
PT3110   PT        0.178573    0.690644    0.653677     0.004505
AU3111   AU        0.177341    0.729336    0.613024     0.007504
PT3112   PT        0.212259    0.692617    0.613404     0.004505
PT3113   PT        0.212518    0.730444    0.652480     0.004505
AU3114   AU        0.248416    0.692605    0.652383     0.007504
AU3115   AU        0.249100    0.730674    0.615339     0.007504
AU3116   AU        0.285329    0.692718    0.613524     0.007504
PT3117   PT        0.284949    0.728349    0.656089     0.004505
PT3118   PT        0.320295    0.692832    0.651279     0.004505
PT3119   PT        0.319966    0.731403    0.614802     0.004505
PT3120   PT        0.354106    0.694091    0.611481     0.004505
AU3121   AU        0.356433    0.729045    0.653197     0.007504
AU3122   AU        0.394447    0.691296    0.653875     0.007504
AU3123   AU        0.395070    0.730825    0.614341     0.007504
AU3124   AU        0.429938    0.689860    0.615594     0.007504
PT3125   PT        0.431125    0.729716    0.652014     0.004505
PT3126   PT        0.465691    0.690680    0.653224     0.004505
PT3127   PT        0.464600    0.728442    0.613515     0.004505
PT3128   PT        0.501144    0.690192    0.614241     0.004505
PT3129   PT        0.502802    0.730034    0.653860     0.004505
AU3130   AU        0.536418    0.690046    0.653244     0.007504
PT3131   PT        0.537415    0.727683    0.612803     0.004505
PT3132   PT        0.572701    0.692723    0.616015     0.004505
AU3133   AU        0.572252    0.728550    0.654446     0.007504
AU3134   AU        0.608198    0.689987    0.654078     0.007504
AU3135   AU        0.608336    0.728525    0.614401     0.007504
PT3136   PT        0.645524    0.690224    0.615575     0.004505
PT3137   PT        0.644087    0.730381    0.651442     0.004505
PT3138   PT        0.679332    0.691897    0.652949     0.004505
AU3139   AU        0.678330    0.729080    0.615822     0.007504
PT3140   PT        0.714509    0.691495    0.613339     0.004505
PT3141   PT        0.713546    0.728606    0.650653     0.004505
AU3142   AU        0.748690    0.690767    0.653689     0.007504
PT3143   PT        0.751495    0.728114    0.612828     0.004505
AU3144   AU        0.143869    0.766421    0.614072     0.007504
PT3145   PT        0.177210    0.765598    0.652925     0.004505
PT3146   PT        0.177604    0.804937    0.614069     0.004505
PT3147   PT        0.212832    0.767097    0.613996     0.004505
AU3148   AU        0.214952    0.803365    0.653374     0.007504
AU3149   AU        0.249700    0.766894    0.653200     0.007504
PT3150   PT        0.248858    0.804667    0.614532     0.004505
AU3151   AU        0.284154    0.766931    0.615240     0.007504
PT3152   PT        0.284325    0.803976    0.652696     0.004505
PT3153   PT        0.319609    0.770556    0.654488     0.004505
PT3154   PT        0.319894    0.805656    0.615470     0.004505
PT3155   PT        0.354813    0.768985    0.614755     0.004505
PT3156   PT        0.355070    0.806333    0.653453     0.004505
AU3157   AU        0.393860    0.767745    0.652300     0.007504
PT3158   PT        0.391005    0.806612    0.613878     0.004505
PT3159   PT        0.429906    0.768599    0.614721     0.004505
AU3160   AU        0.427915    0.806532    0.652185     0.007504
PT3161   PT        0.464156    0.768384    0.656017     0.004505
AU3162   AU        0.462286    0.805986    0.613754     0.007504
PT3163   PT        0.500467    0.769626    0.616131     0.004505
PT3164   PT        0.502737    0.806354    0.653931     0.004505
AU3165   AU        0.536791    0.767835    0.655349     0.007504
PT3166   PT        0.537024    0.806170    0.615440     0.004505
PT3167   PT        0.573076    0.766747    0.612900     0.004505
PT3168   PT        0.570808    0.804061    0.650811     0.004505
PT3169   PT        0.607221    0.766088    0.650704     0.004505
PT3170   PT        0.608489    0.804213    0.614632     0.004505
AU3171   AU        0.642896    0.767566    0.614915     0.007504
PT3172   PT        0.643985    0.802760    0.654063     0.004505
PT3173   PT        0.680435    0.766394    0.652303     0.004505
PT3174   PT        0.677527    0.804565    0.614289     0.004505
PT3175   PT        0.714496    0.764235    0.613482     0.004505
PT3176   PT        0.248820    0.841211    0.652641     0.004505
PT3177   PT        0.283655    0.841045    0.615200     0.004505
PT3178   PT        0.320925    0.842327    0.653967     0.004505
AU3179   AU        0.319298    0.880710    0.616490     0.007504
AU3180   AU        0.355778    0.843367    0.615116     0.007504
PT3181   PT        0.357038    0.879280    0.651689     0.004505
AU3182   AU        0.392917    0.842011    0.652248     0.007504
PT3183   PT        0.392168    0.879104    0.613177     0.004505
PT3184   PT        0.428373    0.843234    0.614798     0.004505
PT3185   PT        0.429157    0.876188    0.652614     0.004505
PT3186   PT        0.465438    0.842365    0.651171     0.004505
PT3187   PT        0.464842    0.878827    0.613623     0.004505
AU3188   AU        0.501818    0.842769    0.616610     0.007504
PT3189   PT        0.501146    0.879839    0.650544     0.004505
AU3190   AU        0.537329    0.842300    0.653260     0.007504
PT3191   PT        0.537924    0.880552    0.617203     0.004505
PT3192   PT        0.571589    0.841759    0.615417     0.004505
PT3193   PT        0.607246    0.842000    0.652089     0.004505
AU3194   AU        0.248584    0.116211    0.690252     0.007504
AU3195   AU        0.283179    0.115674    0.728739     0.007504
AU3196   AU        0.323504    0.115844    0.691935     0.007504
AU3197   AU        0.358611    0.077934    0.691249     0.007504
AU3198   AU        0.360644    0.115234    0.730050     0.007504
AU3199   AU        0.394889    0.076499    0.728569     0.007504
AU3200   AU        0.394083    0.113597    0.692279     0.007504
PT3201   PT        0.430117    0.076402    0.691893     0.004505
AU3202   AU        0.429077    0.114085    0.729008     0.007504
PT3203   PT        0.465100    0.079115    0.729913     0.004505
AU3204   AU        0.463260    0.112341    0.690035     0.007504
PT3205   PT        0.499687    0.078513    0.688801     0.004505
PT3206   PT        0.498658    0.116053    0.727722     0.004505
PT3207   PT        0.534262    0.115722    0.690261     0.004505
PT3208   PT        0.571656    0.115921    0.728328     0.004505
PT3209   PT        0.607568    0.116542    0.689920     0.004505
PT3210   PT        0.179928    0.190621    0.691883     0.004505
PT3211   PT        0.214762    0.153745    0.690138     0.004505
PT3212   PT        0.214789    0.190485    0.728081     0.004505
AU3213   AU        0.248415    0.153052    0.728580     0.007504
PT3214   PT        0.248319    0.190431    0.690388     0.004505
PT3215   PT        0.285367    0.153094    0.691207     0.004505
PT3216   PT        0.283844    0.191129    0.730037     0.004505
AU3217   AU        0.321994    0.151632    0.729876     0.007504
PT3218   PT        0.320727    0.189019    0.693784     0.004505
AU3219   AU        0.357813    0.151467    0.691833     0.007504
PT3220   PT        0.357554    0.189214    0.728813     0.004505
AU3221   AU        0.394450    0.152979    0.729067     0.007504
AU3222   AU        0.393330    0.189285    0.691548     0.007504
PT3223   PT        0.429310    0.150624    0.690906     0.004505
AU3224   AU        0.428238    0.190162    0.729715     0.007504
AU3225   AU        0.463610    0.151979    0.728203     0.007504
PT3226   PT        0.464247    0.188175    0.689503     0.004505
PT3227   PT        0.498490    0.151204    0.691170     0.004505
AU3228   AU        0.499136    0.188457    0.728967     0.007504
AU3229   AU        0.534719    0.152893    0.727387     0.007504
AU3230   AU        0.537082    0.190591    0.691814     0.007504
PT3231   PT        0.572430    0.153747    0.691095     0.004505
AU3232   AU        0.572461    0.189133    0.728817     0.007504
PT3233   PT        0.608931    0.152628    0.728494     0.004505
PT3234   PT        0.608866    0.190339    0.690896     0.004505
AU3235   AU        0.643377    0.151821    0.689971     0.007504
PT3236   PT        0.643797    0.191166    0.728901     0.004505
PT3237   PT        0.677309    0.191908    0.689128     0.004505
AU3238   AU        0.108869    0.267370    0.690554     0.007504
PT3239   PT        0.144132    0.230580    0.690454     0.004505
AU3240   AU        0.143735    0.267913    0.729848     0.007504
PT3241   PT        0.178478    0.230597    0.729091     0.004505
PT3242   PT        0.176801    0.267602    0.690781     0.004505
AU3243   AU        0.212148    0.227305    0.690130     0.007504
PT3244   PT        0.214785    0.267454    0.731522     0.004505
PT3245   PT        0.248928    0.229975    0.730195     0.004505
AU3246   AU        0.248195    0.265593    0.693244     0.007504
PT3247   PT        0.283185    0.227459    0.693825     0.004505
PT3248   PT        0.286280    0.265595    0.732999     0.004505
PT3249   PT        0.322443    0.225086    0.730037     0.004505
AU3250   AU        0.319646    0.263864    0.691867     0.007504
PT3251   PT        0.357481    0.226373    0.688098     0.004505
AU3252   AU        0.355627    0.263432    0.728544     0.007504
AU3253   AU        0.394696    0.227744    0.727606     0.007504
AU3254   AU        0.393063    0.264946    0.690878     0.007504
PT3255   PT        0.428214    0.225276    0.689584     0.004505
PT3256   PT        0.428961    0.268574    0.729502     0.004505
PT3257   PT        0.464948    0.227894    0.728874     0.004505
PT3258   PT        0.463936    0.268407    0.692766     0.004505
PT3259   PT        0.501185    0.228557    0.692707     0.004505
PT3260   PT        0.503070    0.267253    0.729538     0.004505
PT3261   PT        0.537751    0.228218    0.730384     0.004505
PT3262   PT        0.536816    0.266445    0.689655     0.004505
AU3263   AU        0.573198    0.227513    0.692857     0.007504
AU3264   AU        0.572362    0.266887    0.729215     0.007504
AU3265   AU        0.606576    0.227375    0.729806     0.007504
PT3266   PT        0.608839    0.265965    0.693515     0.004505
AU3267   AU        0.643215    0.228586    0.691547     0.007504
AU3268   AU        0.644436    0.266599    0.728470     0.007504
PT3269   PT        0.678020    0.229145    0.728002     0.004505
AU3270   AU        0.678824    0.267141    0.689351     0.007504
PT3271   PT        0.712380    0.231504    0.690040     0.004505
AU3272   AU        0.713840    0.265755    0.727506     0.007504
PT3273   PT        0.748786    0.266627    0.691398     0.004505
PT3274   PT        0.110569    0.306007    0.730135     0.004505
PT3275   PT        0.107127    0.344023    0.689820     0.004505
PT3276   PT        0.142683    0.306274    0.690929     0.004505
PT3277   PT        0.142826    0.345089    0.727323     0.004505
AU3278   AU        0.177449    0.306654    0.730224     0.007504
PT3279   PT        0.176522    0.343407    0.690825     0.004505
PT3280   PT        0.213782    0.305243    0.693102     0.004505
PT3281   PT        0.212623    0.345695    0.730374     0.004505
PT3282   PT        0.249753    0.306028    0.730735     0.004505
AU3283   AU        0.249394    0.343567    0.693294     0.007504
AU3284   AU        0.285734    0.304691    0.693235     0.007504
AU3285   AU        0.285083    0.343176    0.731022     0.007504
AU3286   AU        0.321603    0.304715    0.732103     0.007504
PT3287   PT        0.319020    0.346182    0.690960     0.004505
PT3288   PT        0.353237    0.305959    0.690239     0.004505
PT3289   PT        0.356761    0.344824    0.728029     0.004505
PT3290   PT        0.390784    0.303612    0.726684     0.004505
AU3291   AU        0.393172    0.344473    0.690218     0.007504
AU3292   AU        0.426735    0.305559    0.689689     0.007504
PT3293   PT        0.428918    0.340474    0.728013     0.004505
AU3294   AU        0.466169    0.304827    0.731103     0.007504
AU3295   AU        0.464093    0.343784    0.690328     0.007504
PT3296   PT        0.503868    0.304841    0.689110     0.004505
AU3297   AU        0.502952    0.343765    0.728802     0.007504
AU3298   AU        0.537667    0.305312    0.730805     0.007504
AU3299   AU        0.536714    0.344319    0.691633     0.007504
AU3300   AU        0.570785    0.307116    0.691724     0.007504
AU3301   AU        0.570878    0.343119    0.733164     0.007504
PT3302   PT        0.608858    0.305472    0.729588     0.004505
PT3303   PT        0.608905    0.342386    0.692962     0.004505
PT3304   PT        0.642942    0.306349    0.691534     0.004505
AU3305   AU        0.643683    0.344345    0.730639     0.007504
PT3306   PT        0.679215    0.304404    0.729182     0.004505
AU3307   AU        0.677952    0.344137    0.690600     0.007504
PT3308   PT        0.714586    0.305288    0.690355     0.004505
PT3309   PT        0.714352    0.342698    0.729467     0.004505
PT3310   PT        0.747241    0.304381    0.728669     0.004505
PT3311   PT        0.749637    0.344580    0.691010     0.004505
PT3312   PT        0.074011    0.385501    0.689757     0.004505
PT3313   PT        0.074163    0.423045    0.730068     0.004505
AU3314   AU        0.106912    0.383557    0.728716     0.007504
PT3315   PT        0.109030    0.421956    0.691232     0.004505
PT3316   PT        0.141697    0.381262    0.690766     0.004505
AU3317   AU        0.142800    0.419725    0.729542     0.007504
AU3318   AU        0.176894    0.381791    0.729259     0.007504
PT3319   PT        0.178106    0.419882    0.693233     0.004505
PT3320   PT        0.214630    0.383328    0.694793     0.004505
AU3321   AU        0.213651    0.421354    0.731441     0.007504
AU3322   AU        0.248579    0.381479    0.731953     0.007504
AU3323   AU        0.250146    0.420714    0.694043     0.007504
PT3324   PT        0.283852    0.381625    0.691554     0.004505
PT3325   PT        0.286115    0.420971    0.731381     0.004505
AU3326   AU        0.321400    0.385435    0.731065     0.007504
AU3327   AU        0.319809    0.418480    0.690647     0.007504
PT3328   PT        0.353896    0.381641    0.689386     0.004505
AU3329   AU        0.354816    0.422761    0.730644     0.007504
AU3330   AU        0.395635    0.382495    0.729768     0.007504
AU3331   AU        0.393932    0.420775    0.692131     0.007504
AU3332   AU        0.428726    0.382595    0.690677     0.007504
PT3333   PT        0.430852    0.420073    0.729977     0.004505
AU3334   AU        0.464171    0.383176    0.730032     0.007504
PT3335   PT        0.463536    0.420904    0.689487     0.004505
AU3336   AU        0.500954    0.381693    0.692146     0.007504
AU3337   AU        0.502427    0.419544    0.731468     0.007504
AU3338   AU        0.538048    0.383329    0.731812     0.007504
PT3339   PT        0.537640    0.420899    0.692571     0.004505
AU3340   AU        0.571219    0.381874    0.692370     0.007504
PT3341   PT        0.571485    0.421561    0.730889     0.004505
PT3342   PT        0.607910    0.380760    0.731606     0.004505
AU3343   AU        0.608554    0.420906    0.692707     0.007504
AU3344   AU        0.643227    0.383063    0.690017     0.007504
AU3345   AU        0.644376    0.420931    0.729835     0.007504
PT3346   PT        0.678434    0.383038    0.731120     0.004505
AU3347   AU        0.679884    0.419184    0.689647     0.007504
AU3348   AU        0.714146    0.382778    0.692237     0.007504
AU3349   AU        0.715272    0.421644    0.729775     0.007504
PT3350   PT        0.748746    0.383557    0.729043     0.004505
PT3351   PT        0.749921    0.419982    0.690686     0.004505
AU3352   AU        0.782123    0.383710    0.689863     0.007504
PT3353   PT        0.783286    0.421429    0.729101     0.004505
PT3354   PT        0.072948    0.458967    0.690743     0.004505
AU3355   AU        0.073488    0.495664    0.730601     0.007504
PT3356   PT        0.107703    0.460334    0.730745     0.004505
PT3357   PT        0.107519    0.496222    0.691219     0.004505
PT3358   PT        0.140770    0.460497    0.691942     0.004505
PT3359   PT        0.142767    0.497904    0.729462     0.004505
AU3360   AU        0.177331    0.459828    0.730458     0.007504
PT3361   PT        0.176061    0.497566    0.691286     0.004505
AU3362   AU        0.212844    0.460499    0.692234     0.007504
AU3363   AU        0.212615    0.498882    0.730636     0.007504
AU3364   AU        0.247561    0.459437    0.731232     0.007504
AU3365   AU        0.248696    0.498518    0.690674     0.007504
PT3366   PT        0.283342    0.458970    0.691771     0.004505
AU3367   AU        0.284074    0.498913    0.730415     0.007504
AU3368   AU        0.319353    0.459559    0.730522     0.007504
AU3369   AU        0.320343    0.499201    0.690994     0.007504
AU3370   AU        0.353080    0.458819    0.691216     0.007504
AU3371   AU        0.356016    0.499434    0.731460     0.007504
PT3372   PT        0.393934    0.462571    0.733804     0.004505
PT3373   PT        0.393306    0.499001    0.691510     0.004505
AU3374   AU        0.427556    0.460230    0.689992     0.007504
AU3375   AU        0.429195    0.499152    0.731555     0.007504
AU3376   AU        0.462986    0.460410    0.731095     0.007504
AU3377   AU        0.466490    0.499093    0.690147     0.007504
PT3378   PT        0.500812    0.457589    0.691026     0.004505
PT3379   PT        0.501621    0.498521    0.730083     0.004505
AU3380   AU        0.537798    0.460362    0.729956     0.007504
AU3381   AU        0.535670    0.496541    0.691198     0.007504
PT3382   PT        0.570649    0.460611    0.692889     0.004505
AU3383   AU        0.570778    0.498832    0.730083     0.007504
AU3384   AU        0.606668    0.460912    0.733608     0.007504
AU3385   AU        0.606785    0.498129    0.694469     0.007504
AU3386   AU        0.645314    0.460500    0.690625     0.007504
PT3387   PT        0.642306    0.499846    0.731146     0.004505
AU3388   AU        0.679059    0.460494    0.729728     0.007504
AU3389   AU        0.679889    0.498213    0.690250     0.007504
PT3390   PT        0.714247    0.459926    0.691060     0.004505
PT3391   PT        0.713903    0.496731    0.730150     0.004505
AU3392   AU        0.749280    0.459806    0.729784     0.007504
PT3393   PT        0.749879    0.498402    0.692557     0.004505
PT3394   PT        0.783812    0.458232    0.694296     0.004505
PT3395   PT        0.782865    0.498050    0.728984     0.004505
AU3396   AU        0.073178    0.535673    0.689410     0.007504
PT3397   PT        0.107591    0.535715    0.729864     0.004505
AU3398   AU        0.106274    0.573584    0.692205     0.007504
PT3399   PT        0.142646    0.536201    0.690716     0.004505
PT3400   PT        0.143552    0.574910    0.729386     0.004505
AU3401   AU        0.179163    0.535938    0.728149     0.007504
AU3402   AU        0.176854    0.574948    0.690858     0.007504
AU3403   AU        0.212260    0.534607    0.690412     0.007504
PT3404   PT        0.213530    0.575684    0.730722     0.004505
PT3405   PT        0.247117    0.536264    0.731825     0.004505
PT3406   PT        0.249840    0.575796    0.693443     0.004505
PT3407   PT        0.283458    0.536595    0.692511     0.004505
AU3408   AU        0.285062    0.576254    0.733486     0.007504
AU3409   AU        0.318169    0.536121    0.732209     0.007504
PT3410   PT        0.320121    0.577365    0.691801     0.004505
PT3411   PT        0.358316    0.536669    0.691334     0.004505
PT3412   PT        0.355740    0.573371    0.731088     0.004505
AU3413   AU        0.393635    0.536599    0.729765     0.007504
AU3414   AU        0.394231    0.575292    0.692596     0.007504
AU3415   AU        0.431403    0.536012    0.692317     0.007504
PT3416   PT        0.430201    0.574257    0.730438     0.004505
AU3417   AU        0.463982    0.536755    0.732032     0.007504
AU3418   AU        0.465949    0.574951    0.692456     0.007504
PT3419   PT        0.501304    0.537366    0.692767     0.004505
AU3420   AU        0.500264    0.576792    0.733613     0.007504
PT3421   PT        0.537114    0.536602    0.727847     0.004505
AU3422   AU        0.537695    0.577533    0.692622     0.007504
PT3423   PT        0.573464    0.537207    0.692509     0.004505
AU3424   AU        0.572362    0.578334    0.731068     0.007504
AU3425   AU        0.608437    0.538740    0.730303     0.007504
AU3426   AU        0.609639    0.576255    0.688992     0.007504
AU3427   AU        0.645172    0.537734    0.691153     0.007504
AU3428   AU        0.642770    0.575982    0.730271     0.007504
PT3429   PT        0.680666    0.536964    0.730107     0.004505
PT3430   PT        0.679731    0.575774    0.693554     0.004505
PT3431   PT        0.716527    0.537537    0.691070     0.004505
AU3432   AU        0.714895    0.576358    0.729586     0.007504
PT3433   PT        0.749024    0.536334    0.728399     0.004505
AU3434   AU        0.750761    0.574192    0.689767     0.007504
AU3435   AU        0.784655    0.534739    0.690565     0.007504
PT3436   PT        0.108208    0.612434    0.727724     0.004505
PT3437   PT        0.107461    0.652654    0.689593     0.004505
AU3438   AU        0.142217    0.614037    0.688593     0.007504
PT3439   PT        0.110253    0.662847    0.739746     0.004505
PT3440   PT        0.177037    0.612510    0.729292     0.004505
PT3441   PT        0.178007    0.653161    0.691449     0.004505
AU3442   AU        0.213181    0.613626    0.693464     0.007504
PT3443   PT        0.213938    0.650919    0.729886     0.004505
AU3444   AU        0.247921    0.613394    0.730717     0.007504
AU3445   AU        0.249439    0.653327    0.693885     0.007504
AU3446   AU        0.283982    0.614459    0.692365     0.007504
AU3447   AU        0.285139    0.652859    0.729887     0.007504
PT3448   PT        0.320908    0.614192    0.731014     0.004505
PT3449   PT        0.321781    0.652296    0.692737     0.004505
AU3450   AU        0.359820    0.613891    0.694266     0.007504
PT3451   PT        0.356962    0.653428    0.731860     0.004505
AU3452   AU        0.390560    0.612059    0.731773     0.007504
AU3453   AU        0.394687    0.651192    0.694771     0.007504
AU3454   AU        0.430698    0.612090    0.694215     0.007504
PT3455   PT        0.430784    0.652888    0.731171     0.004505
AU3456   AU        0.464984    0.613833    0.730469     0.007504
PT3457   PT        0.464146    0.653272    0.692133     0.004505
PT3458   PT        0.500780    0.614729    0.692969     0.004505
AU3459   AU        0.502808    0.652290    0.729991     0.007504
AU3460   AU        0.535123    0.613454    0.732328     0.007504
AU3461   AU        0.538327    0.651847    0.692198     0.007504
AU3462   AU        0.574305    0.614186    0.693139     0.007504
AU3463   AU        0.571096    0.650278    0.730650     0.007504
AU3464   AU        0.608163    0.614492    0.729818     0.007504
AU3465   AU        0.607779    0.652317    0.693061     0.007504
PT3466   PT        0.644948    0.614567    0.691445     0.004505
PT3467   PT        0.643709    0.651998    0.729631     0.004505
PT3468   PT        0.680623    0.617557    0.728504     0.004505
AU3469   AU        0.679072    0.652244    0.690785     0.007504
AU3470   AU        0.714790    0.613835    0.691857     0.007504
PT3471   PT        0.714256    0.654393    0.728373     0.004505
PT3472   PT        0.748266    0.614469    0.728478     0.004505
PT3473   PT        0.747988    0.652432    0.690326     0.004505
PT3474   PT        0.143012    0.689546    0.690354     0.004505
AU3475   AU        0.179178    0.688932    0.728636     0.007504
AU3476   AU        0.178701    0.726510    0.691029     0.007504
AU3477   AU        0.215239    0.692541    0.691577     0.007504
PT3478   PT        0.215189    0.726942    0.730882     0.004505
AU3479   AU        0.249628    0.691777    0.727938     0.007504
AU3480   AU        0.248887    0.730313    0.691683     0.007504
PT3481   PT        0.286393    0.691178    0.692782     0.004505
AU3482   AU        0.283364    0.728555    0.729320     0.007504
AU3483   AU        0.320605    0.691402    0.730647     0.007504
PT3484   PT        0.320336    0.731107    0.692815     0.004505
AU3485   AU        0.356000    0.692688    0.691211     0.007504
AU3486   AU        0.356958    0.729313    0.730613     0.007504
AU3487   AU        0.393643    0.690368    0.730010     0.007504
AU3488   AU        0.391896    0.731138    0.689543     0.007504
PT3489   PT        0.429065    0.691934    0.693314     0.004505
AU3490   AU        0.428988    0.730070    0.730856     0.007504
AU3491   AU        0.465501    0.693043    0.729858     0.007504
PT3492   PT        0.464669    0.731069    0.692817     0.004505
PT3493   PT        0.501278    0.689845    0.692860     0.004505
PT3494   PT        0.500879    0.729367    0.729904     0.004505
PT3495   PT        0.536953    0.692412    0.730689     0.004505
PT3496   PT        0.537508    0.729817    0.691544     0.004505
AU3497   AU        0.571736    0.690227    0.693627     0.007504
PT3498   PT        0.571478    0.729597    0.728165     0.004505
PT3499   PT        0.606700    0.690476    0.729029     0.004505
AU3500   AU        0.606049    0.728313    0.692331     0.007504
PT3501   PT        0.644252    0.688682    0.690650     0.004505
PT3502   PT        0.643410    0.727847    0.727830     0.004505
PT3503   PT        0.677354    0.688920    0.728613     0.004505
PT3504   PT        0.678905    0.728921    0.689063     0.004505
AU3505   AU        0.714079    0.688303    0.690155     0.007504
PT3506   PT        0.213791    0.766174    0.690870     0.004505
PT3507   PT        0.250231    0.766219    0.728672     0.004505
AU3508   AU        0.250168    0.805129    0.688378     0.007504
PT3509   PT        0.285840    0.767260    0.691936     0.004505
AU3510   AU        0.284716    0.803319    0.729373     0.007504
PT3511   PT        0.323065    0.769047    0.729702     0.004505
AU3512   AU        0.321775    0.806458    0.692150     0.007504
PT3513   PT        0.357450    0.769197    0.689727     0.004505
PT3514   PT        0.359305    0.804372    0.728416     0.004505
PT3515   PT        0.392870    0.767651    0.729715     0.004505
AU3516   AU        0.392452    0.806424    0.690539     0.007504
AU3517   AU        0.426302    0.768745    0.691428     0.007504
PT3518   PT        0.428183    0.803983    0.728497     0.004505
PT3519   PT        0.464112    0.767995    0.727743     0.004505
AU3520   AU        0.465128    0.806612    0.689679     0.007504
PT3521   PT        0.500319    0.769750    0.692522     0.004505
PT3522   PT        0.499140    0.805818    0.727772     0.004505
PT3523   PT        0.537718    0.767689    0.727772     0.004505
PT3524   PT        0.536561    0.805640    0.693294     0.004505
PT3525   PT        0.572070    0.768612    0.692311     0.004505
PT3526   PT        0.573761    0.802916    0.729937     0.004505
PT3527   PT        0.607182    0.765655    0.729627     0.004505
PT3528   PT        0.606878    0.804596    0.691316     0.004505
PT3529   PT        0.641815    0.765976    0.691258     0.004505
PT3530   PT        0.357630    0.842380    0.689892     0.004505
AU3531   AU        0.395047    0.843214    0.729397     0.007504
AU3532   AU        0.429342    0.841003    0.689290     0.007504
PT3533   PT        0.464026    0.842200    0.726339     0.004505
PT3534   PT        0.501233    0.843756    0.687949     0.004505
AU3535   AU        0.396150    0.115158    0.766026     0.007504
PT3536   PT        0.463183    0.118048    0.765820     0.004505
PT3537   PT        0.249713    0.190877    0.766919     0.004505
AU3538   AU        0.285284    0.153715    0.766687     0.007504
PT3539   PT        0.282130    0.191602    0.806649     0.004505
AU3540   AU        0.321274    0.189721    0.766876     0.007504
AU3541   AU        0.358940    0.152554    0.764925     0.007504
PT3542   PT        0.358729    0.192191    0.805155     0.004505
PT3543   PT        0.395131    0.152446    0.804133     0.004505
AU3544   AU        0.391659    0.190523    0.768426     0.007504
AU3545   AU        0.429253    0.153376    0.767003     0.007504
PT3546   PT        0.428635    0.190876    0.805192     0.004505
AU3547   AU        0.464655    0.154697    0.802824     0.007504
AU3548   AU        0.464019    0.189718    0.766952     0.007504
AU3549   AU        0.498739    0.152580    0.765185     0.007504
AU3550   AU        0.498719    0.190940    0.805606     0.007504
AU3551   AU        0.535621    0.188167    0.766574     0.007504
PT3552   PT        0.573040    0.154242    0.764298     0.004505
PT3553   PT        0.572746    0.192040    0.804208     0.004505
AU3554   AU        0.607834    0.192777    0.766728     0.007504
PT3555   PT        0.179153    0.268034    0.766883     0.004505
PT3556   PT        0.215482    0.229006    0.767672     0.004505
PT3557   PT        0.215467    0.267901    0.804568     0.004505
PT3558   PT        0.251526    0.230766    0.803590     0.004505
AU3559   AU        0.249789    0.267767    0.768558     0.007504
PT3560   PT        0.286710    0.227550    0.767884     0.004505
PT3561   PT        0.285831    0.268140    0.806687     0.004505
PT3562   PT        0.322169    0.229094    0.804695     0.004505
AU3563   AU        0.322355    0.267329    0.767322     0.007504
PT3564   PT        0.356772    0.228629    0.766860     0.004505
PT3565   PT        0.356871    0.265997    0.804870     0.004505
AU3566   AU        0.392327    0.230507    0.804704     0.007504
AU3567   AU        0.392013    0.266679    0.765841     0.007504
AU3568   AU        0.427874    0.228969    0.766742     0.007504
AU3569   AU        0.428223    0.267584    0.805569     0.007504
PT3570   PT        0.464641    0.226984    0.805681     0.004505
PT3571   PT        0.462950    0.266104    0.767414     0.004505
PT3572   PT        0.500429    0.226651    0.767076     0.004505
PT3573   PT        0.501455    0.265912    0.805403     0.004505
PT3574   PT        0.537020    0.227296    0.804884     0.004505
PT3575   PT        0.536967    0.266575    0.767949     0.004505
AU3576   AU        0.572156    0.226564    0.766376     0.007504
AU3577   AU        0.572871    0.264194    0.804339     0.007504
AU3578   AU        0.608118    0.228116    0.803507     0.007504
PT3579   PT        0.608741    0.267059    0.766461     0.004505
PT3580   PT        0.642330    0.229491    0.766064     0.004505
PT3581   PT        0.642561    0.268965    0.804905     0.004505
PT3582   PT        0.678762    0.266937    0.767850     0.004505
PT3583   PT        0.143763    0.304488    0.768624     0.004505
AU3584   AU        0.180416    0.306241    0.803449     0.007504
PT3585   PT        0.177662    0.345845    0.766983     0.004505
PT3586   PT        0.215521    0.305181    0.767441     0.004505
PT3587   PT        0.214823    0.344972    0.804488     0.004505
PT3588   PT        0.250636    0.305020    0.805872     0.004505
PT3589   PT        0.249946    0.344635    0.768846     0.004505
AU3590   AU        0.284920    0.303395    0.768152     0.007504
AU3591   AU        0.286371    0.343755    0.806638     0.007504
AU3592   AU        0.319914    0.305114    0.806174     0.007504
AU3593   AU        0.320182    0.343506    0.769122     0.007504
PT3594   PT        0.355634    0.305945    0.768772     0.004505
PT3595   PT        0.357021    0.345359    0.807598     0.004505
AU3596   AU        0.391807    0.305983    0.805689     0.007504
PT3597   PT        0.392573    0.344119    0.767119     0.004505
AU3598   AU        0.429006    0.304919    0.767993     0.007504
PT3599   PT        0.426894    0.344806    0.804678     0.004505
AU3600   AU        0.465893    0.303609    0.805342     0.007504
AU3601   AU        0.462361    0.344228    0.768443     0.007504
AU3602   AU        0.503482    0.305311    0.769499     0.007504
PT3603   PT        0.502077    0.344164    0.806307     0.004505
PT3604   PT        0.538617    0.307275    0.806472     0.004505
AU3605   AU        0.537496    0.342715    0.769470     0.007504
PT3606   PT        0.573268    0.302726    0.768945     0.004505
AU3607   AU        0.571816    0.342366    0.806032     0.007504
PT3608   PT        0.609780    0.305163    0.806208     0.004505
PT3609   PT        0.607328    0.342000    0.768787     0.004505
PT3610   PT        0.643484    0.304681    0.766715     0.004505
PT3611   PT        0.643055    0.344255    0.805724     0.004505
PT3612   PT        0.676787    0.305855    0.805506     0.004505
PT3613   PT        0.679196    0.344921    0.766709     0.004505
PT3614   PT        0.712894    0.303964    0.767734     0.004505
AU3615   AU        0.108754    0.422399    0.767665     0.007504
PT3616   PT        0.142980    0.382610    0.767425     0.004505
PT3617   PT        0.144298    0.421595    0.803344     0.004505
PT3618   PT        0.179987    0.383687    0.804466     0.004505
PT3619   PT        0.178754    0.420905    0.766307     0.004505
PT3620   PT        0.213295    0.382847    0.766832     0.004505
AU3621   AU        0.212906    0.422400    0.805006     0.007504
PT3622   PT        0.249011    0.382845    0.806724     0.004505
AU3623   AU        0.248687    0.419614    0.768530     0.007504
AU3624   AU        0.284877    0.384365    0.768487     0.007504
PT3625   PT        0.283954    0.422545    0.805356     0.004505
PT3626   PT        0.321234    0.383221    0.806604     0.004505
AU3627   AU        0.320174    0.422076    0.769507     0.007504
PT3628   PT        0.357431    0.384243    0.769345     0.004505
AU3629   AU        0.357612    0.421535    0.808398     0.007504
AU3630   AU        0.392435    0.382540    0.806371     0.007504
AU3631   AU        0.392844    0.421695    0.768744     0.007504
AU3632   AU        0.428771    0.382814    0.767454     0.007504
AU3633   AU        0.426056    0.421367    0.808843     0.007504
AU3634   AU        0.462961    0.381925    0.808746     0.007504
AU3635   AU        0.464441    0.418493    0.768999     0.007504
PT3636   PT        0.501137    0.382848    0.768561     0.004505
AU3637   AU        0.500146    0.420480    0.807155     0.007504
AU3638   AU        0.537471    0.381090    0.805938     0.007504
PT3639   PT        0.537968    0.422083    0.769015     0.004505
PT3640   PT        0.572792    0.382645    0.768723     0.004505
PT3641   PT        0.572962    0.418720    0.806009     0.004505
PT3642   PT        0.607359    0.381010    0.807358     0.004505
PT3643   PT        0.608143    0.420719    0.769071     0.004505
PT3644   PT        0.643430    0.383168    0.767753     0.004505
PT3645   PT        0.643643    0.420754    0.805343     0.004505
PT3646   PT        0.679393    0.383976    0.803781     0.004505
AU3647   AU        0.679497    0.422321    0.767430     0.007504
PT3648   PT        0.714556    0.383957    0.766504     0.004505
PT3649   PT        0.713279    0.418572    0.804847     0.004505
PT3650   PT        0.748973    0.420551    0.765268     0.004505
PT3651   PT        0.107694    0.496750    0.767705     0.004505
PT3652   PT        0.143800    0.461302    0.766695     0.004505
PT3653   PT        0.143582    0.495913    0.806245     0.004505
PT3654   PT        0.177792    0.460183    0.805640     0.004505
PT3655   PT        0.178351    0.498230    0.768302     0.004505
AU3656   AU        0.212063    0.458203    0.769375     0.007504
AU3657   AU        0.213887    0.498295    0.805468     0.007504
PT3658   PT        0.249738    0.460371    0.805667     0.004505
PT3659   PT        0.248492    0.498806    0.770432     0.004505
AU3660   AU        0.285086    0.459834    0.767758     0.007504
PT3661   PT        0.286798    0.497892    0.809085     0.004505
AU3662   AU        0.320515    0.458170    0.807007     0.007504
PT3663   PT        0.320263    0.498350    0.769460     0.004505
AU3664   AU        0.356396    0.460649    0.767732     0.007504
AU3665   AU        0.356541    0.500105    0.807941     0.007504
AU3666   AU        0.390940    0.458792    0.808293     0.007504
AU3667   AU        0.393030    0.500118    0.770240     0.007504
AU3668   AU        0.428437    0.459369    0.770515     0.007504
AU3669   AU        0.428476    0.501026    0.807114     0.007504
AU3670   AU        0.464721    0.459129    0.805601     0.007504
AU3671   AU        0.464706    0.499955    0.769535     0.007504
AU3672   AU        0.501149    0.459197    0.769948     0.007504
PT3673   PT        0.500390    0.500472    0.808311     0.004505
PT3674   PT        0.535385    0.457955    0.807265     0.004505
AU3675   AU        0.536967    0.498681    0.770443     0.007504
AU3676   AU        0.574185    0.459708    0.769718     0.007504
PT3677   PT        0.571150    0.496333    0.805764     0.004505
PT3678   PT        0.608629    0.460374    0.806515     0.004505
AU3679   AU        0.608686    0.497732    0.768908     0.007504
AU3680   AU        0.645412    0.460700    0.769295     0.007504
PT3681   PT        0.642353    0.498671    0.805836     0.004505
PT3682   PT        0.679293    0.458738    0.807116     0.004505
PT3683   PT        0.679878    0.497999    0.768313     0.004505
PT3684   PT        0.714807    0.458276    0.768117     0.004505
PT3685   PT        0.714417    0.498308    0.805045     0.004505
PT3686   PT        0.750865    0.497906    0.765976     0.004505
PT3687   PT        0.143809    0.534997    0.766910     0.004505
AU3688   AU        0.178151    0.535029    0.807004     0.007504
PT3689   PT        0.177838    0.574806    0.766618     0.004505
AU3690   AU        0.213465    0.536759    0.768648     0.007504
PT3691   PT        0.215448    0.575232    0.805700     0.004505
PT3692   PT        0.248781    0.536898    0.807281     0.004505
PT3693   PT        0.249821    0.576095    0.768655     0.004505
PT3694   PT        0.283513    0.536000    0.769842     0.004505
PT3695   PT        0.285119    0.576059    0.805872     0.004505
PT3696   PT        0.321878    0.537267    0.807142     0.004505
PT3697   PT        0.322413    0.574419    0.770182     0.004505
PT3698   PT        0.358373    0.537270    0.770163     0.004505
AU3699   AU        0.355931    0.574465    0.807416     0.007504
PT3700   PT        0.393126    0.538534    0.808140     0.004505
AU3701   AU        0.393709    0.573290    0.768535     0.007504
AU3702   AU        0.429050    0.537848    0.771405     0.007504
AU3703   AU        0.429889    0.577471    0.807369     0.007504
PT3704   PT        0.464325    0.539448    0.808359     0.004505
PT3705   PT        0.465265    0.578311    0.769606     0.004505
PT3706   PT        0.500473    0.538575    0.771256     0.004505
PT3707   PT        0.500292    0.578686    0.806775     0.004505
PT3708   PT        0.534482    0.539791    0.808381     0.004505
AU3709   AU        0.536167    0.574811    0.770572     0.007504
AU3710   AU        0.570144    0.538338    0.769598     0.007504
PT3711   PT        0.573104    0.575929    0.806977     0.004505
AU3712   AU        0.609634    0.536594    0.806761     0.007504
PT3713   PT        0.608288    0.576682    0.768196     0.004505
AU3714   AU        0.645571    0.538702    0.767114     0.007504
PT3715   PT        0.644449    0.574866    0.805720     0.004505
AU3716   AU        0.678439    0.535983    0.804424     0.007504
PT3717   PT        0.679722    0.577306    0.766950     0.004505
PT3718   PT        0.714651    0.535537    0.765496     0.004505
AU3719   AU        0.143605    0.612152    0.765673     0.007504
PT3720   PT        0.178772    0.612191    0.804599     0.004505
PT3721   PT        0.179806    0.652817    0.769609     0.004505
PT3722   PT        0.214903    0.612316    0.768389     0.004505
PT3723   PT        0.216095    0.649897    0.804579     0.004505
AU3724   AU        0.250325    0.613552    0.806289     0.007504
AU3725   AU        0.250456    0.654083    0.766303     0.007504
PT3726   PT        0.284602    0.613728    0.769501     0.004505
PT3727   PT        0.285278    0.651323    0.805264     0.004505
AU3728   AU        0.320837    0.612987    0.806403     0.007504
AU3729   AU        0.319758    0.651896    0.768799     0.007504
AU3730   AU        0.357709    0.612803    0.770102     0.007504
PT3731   PT        0.356988    0.653153    0.805233     0.004505
AU3732   AU        0.392921    0.614151    0.805861     0.007504
PT3733   PT        0.391661    0.654838    0.769626     0.004505
AU3734   AU        0.429117    0.612691    0.767799     0.007504
PT3735   PT        0.427106    0.652704    0.806243     0.004505
PT3736   PT        0.464929    0.614996    0.807650     0.004505
AU3737   AU        0.464103    0.652149    0.768802     0.007504
PT3738   PT        0.500258    0.615515    0.769333     0.004505
AU3739   AU        0.500199    0.651726    0.806794     0.007504
AU3740   AU        0.536620    0.613497    0.806168     0.007504
AU3741   AU        0.535929    0.653013    0.767854     0.007504
AU3742   AU        0.570770    0.614144    0.769469     0.007504
PT3743   PT        0.573173    0.653134    0.804435     0.004505
PT3744   PT        0.609776    0.616044    0.805318     0.004505
PT3745   PT        0.607671    0.651390    0.766269     0.004505
PT3746   PT        0.644582    0.615780    0.767318     0.004505
AU3747   AU        0.644097    0.652987    0.803869     0.007504
PT3748   PT        0.678843    0.615871    0.804455     0.004505
AU3749   AU        0.678957    0.654858    0.766840     0.007504
PT3750   PT        0.713087    0.617271    0.766135     0.004505
PT3751   PT        0.214699    0.689859    0.766886     0.004505
PT3752   PT        0.250402    0.689344    0.803795     0.004505
PT3753   PT        0.249386    0.725863    0.766514     0.004505
PT3754   PT        0.285899    0.689157    0.768485     0.004505
PT3755   PT        0.283854    0.727685    0.802884     0.004505
AU3756   AU        0.321323    0.690346    0.804271     0.007504
PT3757   PT        0.319984    0.729313    0.767450     0.004505
PT3758   PT        0.358090    0.691876    0.768652     0.004505
PT3759   PT        0.358032    0.729846    0.804175     0.004505
AU3760   AU        0.394634    0.691315    0.807048     0.007504
AU3761   AU        0.392952    0.729412    0.767770     0.007504
AU3762   AU        0.429005    0.691547    0.769302     0.007504
PT3763   PT        0.428285    0.731017    0.804504     0.004505
AU3764   AU        0.463295    0.689992    0.805373     0.007504
AU3765   AU        0.462794    0.730125    0.768160     0.007504
PT3766   PT        0.498902    0.689213    0.770780     0.004505
PT3767   PT        0.501215    0.727974    0.804852     0.004505
AU3768   AU        0.535381    0.689884    0.804220     0.007504
PT3769   PT        0.536160    0.729642    0.767111     0.004505
PT3770   PT        0.572494    0.692501    0.766717     0.004505
PT3771   PT        0.572648    0.729279    0.804597     0.004505
PT3772   PT        0.607694    0.689880    0.802923     0.004505
PT3773   PT        0.607724    0.727509    0.766774     0.004505
PT3774   PT        0.643781    0.689704    0.766381     0.004505
AU3775   AU        0.284131    0.765801    0.767628     0.007504
AU3776   AU        0.358123    0.767957    0.767613     0.007504
PT3777   PT        0.393222    0.767530    0.805466     0.004505
PT3778   PT        0.394946    0.805643    0.767427     0.004505
AU3779   AU        0.426961    0.767450    0.765997     0.007504
PT3780   PT        0.464832    0.769191    0.804830     0.004505
AU3781   AU        0.461654    0.804881    0.764908     0.007504
AU3782   AU        0.497821    0.768559    0.764726     0.007504
PT3783   PT        0.572768    0.766203    0.765728     0.004505
PT3784   PT        0.393609    0.193483    0.841607     0.004505
PT3785   PT        0.461694    0.192338    0.841838     0.004505
PT3786   PT        0.252143    0.266613    0.842247     0.004505
PT3787   PT        0.322621    0.268015    0.841759     0.004505
PT3788   PT        0.358516    0.229210    0.842098     0.004505
PT3789   PT        0.356065    0.267584    0.879916     0.004505
PT3790   PT        0.391372    0.267729    0.842797     0.004505
AU3791   AU        0.428550    0.229026    0.841975     0.007504
PT3792   PT        0.427853    0.268895    0.877093     0.004505
PT3793   PT        0.464926    0.267141    0.843230     0.004505
PT3794   PT        0.499753    0.230431    0.840442     0.004505
PT3795   PT        0.500695    0.268551    0.878512     0.004505
PT3796   PT        0.535942    0.269038    0.841763     0.004505
PT3797   PT        0.608280    0.266960    0.841714     0.004505
AU3798   AU        0.249416    0.345209    0.842081     0.007504
PT3799   PT        0.285225    0.305983    0.843219     0.004505
PT3800   PT        0.286760    0.346459    0.879325     0.004505
PT3801   PT        0.319622    0.306056    0.880536     0.004505
AU3802   AU        0.321330    0.342807    0.842771     0.007504
PT3803   PT        0.356980    0.306318    0.843884     0.004505
PT3804   PT        0.356698    0.343073    0.878397     0.004505
PT3805   PT        0.392905    0.306284    0.878637     0.004505
AU3806   AU        0.392655    0.343356    0.844211     0.007504
PT3807   PT        0.429541    0.306462    0.842248     0.004505
AU3808   AU        0.428612    0.343382    0.881558     0.007504
AU3809   AU        0.464961    0.303575    0.880615     0.007504
AU3810   AU        0.462777    0.342770    0.844513     0.007504
AU3811   AU        0.501211    0.306284    0.842676     0.007504
PT3812   PT        0.502305    0.342423    0.879827     0.004505
PT3813   PT        0.538732    0.304930    0.877716     0.004505
AU3814   AU        0.536959    0.345871    0.842729     0.007504
PT3815   PT        0.572799    0.305042    0.842565     0.004505
PT3816   PT        0.571980    0.342725    0.879129     0.004505
AU3817   AU        0.607999    0.343094    0.843077     0.007504
AU3818   AU        0.179736    0.421510    0.842738     0.007504
PT3819   PT        0.214489    0.385148    0.842519     0.004505
PT3820   PT        0.248189    0.383150    0.880396     0.004505
PT3821   PT        0.249984    0.421693    0.842442     0.004505
PT3822   PT        0.285161    0.382118    0.842670     0.004505
PT3823   PT        0.283025    0.419108    0.879248     0.004505
PT3824   PT        0.319776    0.384023    0.879891     0.004505
PT3825   PT        0.319653    0.422313    0.844167     0.004505
PT3826   PT        0.358532    0.380475    0.844863     0.004505
PT3827   PT        0.356785    0.421825    0.880103     0.004505
AU3828   AU        0.393963    0.382906    0.882690     0.007504
PT3829   PT        0.392827    0.420330    0.844560     0.004505
AU3830   AU        0.427180    0.380716    0.845427     0.007504
PT3831   PT        0.428262    0.421099    0.881244     0.004505
PT3832   PT        0.463861    0.381496    0.880990     0.004505
PT3833   PT        0.462735    0.421539    0.843610     0.004505
AU3834   AU        0.500872    0.382066    0.844345     0.007504
PT3835   PT        0.499069    0.418945    0.880267     0.004505
PT3836   PT        0.536587    0.383957    0.881923     0.004505
PT3837   PT        0.535236    0.418437    0.843993     0.004505
AU3838   AU        0.572179    0.380122    0.843172     0.007504
PT3839   PT        0.572800    0.421167    0.879056     0.004505
PT3840   PT        0.604708    0.380942    0.880745     0.004505
PT3841   PT        0.607891    0.421814    0.842864     0.004505
PT3842   PT        0.644093    0.384569    0.841811     0.004505
PT3843   PT        0.679047    0.420363    0.845156     0.004505
AU3844   AU        0.177580    0.496007    0.842591     0.007504
PT3845   PT        0.213407    0.460368    0.843122     0.004505
PT3846   PT        0.251168    0.460301    0.880048     0.004505
PT3847   PT        0.248435    0.499040    0.841836     0.004505
AU3848   AU        0.284796    0.459727    0.844736     0.007504
AU3849   AU        0.284107    0.499470    0.880238     0.007504
PT3850   PT        0.320499    0.459641    0.880695     0.004505
PT3851   PT        0.321472    0.498516    0.844980     0.004505
AU3852   AU        0.355961    0.460091    0.843946     0.007504
AU3853   AU        0.356217    0.496811    0.881773     0.007504
AU3854   AU        0.392034    0.458586    0.880768     0.007504
PT3855   PT        0.392318    0.497527    0.844060     0.004505
AU3856   AU        0.427004    0.460012    0.845355     0.007504
AU3857   AU        0.429502    0.498373    0.880652     0.007504
AU3858   AU        0.464244    0.459400    0.880729     0.007504
AU3859   AU        0.464730    0.497849    0.843836     0.007504
PT3860   PT        0.499062    0.459129    0.845005     0.004505
PT3861   PT        0.499515    0.499522    0.882392     0.004505
PT3862   PT        0.534105    0.458377    0.879653     0.004505
PT3863   PT        0.534622    0.495396    0.844548     0.004505
PT3864   PT        0.571471    0.458428    0.844606     0.004505
PT3865   PT        0.572381    0.497367    0.880872     0.004505
PT3866   PT        0.608504    0.459478    0.879499     0.004505
PT3867   PT        0.608436    0.497062    0.843656     0.004505
PT3868   PT        0.643057    0.459907    0.843283     0.004505
PT3869   PT        0.678820    0.497318    0.842551     0.004505
PT3870   PT        0.213238    0.536066    0.843423     0.004505
PT3871   PT        0.248456    0.537031    0.880194     0.004505
PT3872   PT        0.250503    0.575191    0.843320     0.004505
AU3873   AU        0.284919    0.538336    0.843253     0.007504
AU3874   AU        0.286019    0.576911    0.878928     0.007504
PT3875   PT        0.320141    0.537484    0.879695     0.004505
AU3876   AU        0.322495    0.575678    0.844451     0.007504
AU3877   AU        0.359463    0.537466    0.844562     0.007504
PT3878   PT        0.357879    0.574653    0.879896     0.004505
AU3879   AU        0.393077    0.536770    0.881448     0.007504
PT3880   PT        0.393007    0.575967    0.845136     0.004505
PT3881   PT        0.428016    0.539648    0.846420     0.004505
AU3882   AU        0.428047    0.576579    0.882146     0.007504
PT3883   PT        0.462740    0.536582    0.882115     0.004505
AU3884   AU        0.463228    0.575996    0.845910     0.007504
PT3885   PT        0.500033    0.540987    0.844336     0.004505
AU3886   AU        0.501097    0.577208    0.881282     0.007504
PT3887   PT        0.537208    0.537187    0.879823     0.004505
PT3888   PT        0.536129    0.576732    0.845140     0.004505
PT3889   PT        0.573562    0.536640    0.843945     0.004505
PT3890   PT        0.573325    0.575084    0.880854     0.004505
PT3891   PT        0.607966    0.536282    0.879687     0.004505
PT3892   PT        0.607910    0.574286    0.842818     0.004505
PT3893   PT        0.642549    0.533829    0.844181     0.004505
PT3894   PT        0.249019    0.651215    0.843215     0.004505
PT3895   PT        0.285632    0.613371    0.842737     0.004505
PT3896   PT        0.323342    0.614160    0.880374     0.004505
PT3897   PT        0.322369    0.651813    0.842777     0.004505
AU3898   AU        0.357553    0.613360    0.843717     0.007504
PT3899   PT        0.356186    0.651477    0.881441     0.004505
PT3900   PT        0.391864    0.616469    0.879697     0.004505
AU3901   AU        0.391866    0.652162    0.841389     0.007504
PT3902   PT        0.426732    0.616101    0.843941     0.004505
PT3903   PT        0.427113    0.653205    0.878676     0.004505
PT3904   PT        0.464486    0.614404    0.880626     0.004505
AU3905   AU        0.465145    0.652852    0.843606     0.007504
AU3906   AU        0.500444    0.613310    0.844372     0.007504
PT3907   PT        0.502827    0.648698    0.882671     0.004505
PT3908   PT        0.538228    0.614341    0.882106     0.004505
AU3909   AU        0.535667    0.651058    0.842825     0.007504
PT3910   PT        0.572457    0.613384    0.843736     0.004505
PT3911   PT        0.605450    0.653734    0.843854     0.004505
PT3912   PT        0.356442    0.688730    0.841879     0.004505
AU3913   AU        0.393673    0.730031    0.842764     0.007504
PT3914   PT        0.428567    0.691720    0.843492     0.004505
PT3915   PT        0.426280    0.732624    0.880983     0.004505
AU3916   AU        0.499441    0.689295    0.843475     0.007504
PT3917   PT        0.396079    0.420758    0.917820     0.004505
PT3918   PT        0.429001    0.382801    0.917362     0.004505
PT3919   PT        0.463923    0.419335    0.917051     0.004505
PT3920   PT        0.357581    0.461106    0.919247     0.004505
AU3921   AU        0.393892    0.496499    0.916729     0.007504
AU3922   AU        0.429347    0.458935    0.916638     0.007504
PT3923   PT        0.462448    0.496014    0.917052     0.004505
PT3924   PT        0.497679    0.458163    0.915268     0.004505
PT3925   PT        0.429037    0.532774    0.918977     0.004505
