data_00001
_audit_creation_method   'DISCUS'

_data_chemical_name_common 'Au.cell: Pearson 85'

_cell_length_a             57.1046
_cell_length_b             65.2624
_cell_length_c             57.1046
_cell_angle_alpha     90.0000
_cell_angle_beta      90.0000
_cell_angle_gamma     90.0000

_symmetry_space_group_name_H-M   'P1              '

loop_
_atom_site_label
_atom_site_symbol
_atom_site_fract_x
_atom_site_fract_y
_atom_site_fract_z
_atom_site_u_iso_or_equiv
AU1   AU        0.396827    0.282532    0.038599     0.007504
AU2   AU        0.487125    0.271734    0.032920     0.007504
AU3   AU        0.537317    0.283663    0.041188     0.007504
PT4   PT        0.326005    0.349685    0.046424     0.004505
PT5   PT        0.360749    0.315773    0.042921     0.004505
PT6   PT        0.397306    0.346838    0.045541     0.004505
PT7   PT        0.431122    0.313991    0.040464     0.004505
AU8   AU        0.466639    0.346207    0.041517     0.007504
AU9   AU        0.498846    0.314619    0.040323     0.007504
PT10   PT        0.566120    0.343104    0.004038     0.004505
PT11   PT        0.572373    0.312968    0.039640     0.004505
AU12   AU        0.602029    0.317367    0.000714     0.007504
AU13   AU        0.288677    0.378397    0.044338     0.007504
AU14   AU        0.322962    0.409395    0.045268     0.007504
AU15   AU        0.361848    0.379877    0.047763     0.007504
PT16   PT        0.396884    0.409726    0.045632     0.004505
AU17   AU        0.432259    0.379063    0.045846     0.007504
AU18   AU        0.430535    0.410575    0.008064     0.007504
PT19   PT        0.463375    0.378274    0.006101     0.004505
AU20   AU        0.467766    0.410299    0.040110     0.007504
AU21   AU        0.499023    0.377979    0.042064     0.007504
AU22   AU        0.501957    0.407005    0.003384     0.007504
AU23   AU        0.537102    0.407918    0.041132     0.007504
AU24   AU        0.569727    0.375354    0.038096     0.007504
PT25   PT        0.604874    0.406900    0.040248     0.004505
AU26   AU        0.644203    0.379292    0.042800     0.007504
PT27   PT        0.290258    0.441713    0.047815     0.004505
AU28   AU        0.327598    0.469468    0.043967     0.007504
AU29   AU        0.361086    0.438720    0.043733     0.007504
AU30   AU        0.395529    0.440388    0.007095     0.007504
AU31   AU        0.394920    0.474518    0.040004     0.007504
PT32   PT        0.430219    0.440778    0.042011     0.004505
PT33   PT        0.430990    0.472480    0.004806     0.004505
AU34   AU        0.465994    0.438609    0.004665     0.007504
AU35   AU        0.468136    0.470400    0.039421     0.007504
PT36   PT        0.502234    0.439412    0.040234     0.004505
PT37   PT        0.503962    0.469040    0.003573     0.004505
PT38   PT        0.536310    0.435948    0.004329     0.004505
AU39   AU        0.537996    0.470915    0.041274     0.007504
PT40   PT        0.573535    0.439393    0.039872     0.004505
PT41   PT        0.607637    0.471010    0.037684     0.004505
PT42   PT        0.641824    0.436404    0.037014     0.004505
PT43   PT        0.288646    0.499839    0.042969     0.004505
PT44   PT        0.323271    0.532867    0.041418     0.004505
AU45   AU        0.362890    0.503075    0.047775     0.007504
AU46   AU        0.399901    0.532776    0.039414     0.007504
AU47   AU        0.434712    0.503230    0.038340     0.007504
PT48   PT        0.471243    0.501075    0.003667     0.004505
PT49   PT        0.472066    0.532173    0.041590     0.004505
PT50   PT        0.503318    0.499868    0.042668     0.004505
PT51   PT        0.541193    0.529904    0.040643     0.004505
AU52   AU        0.573980    0.500386    0.038472     0.007504
PT53   PT        0.608731    0.533586    0.042592     0.004505
AU54   AU        0.644214    0.501831    0.039802     0.007504
PT55   PT        0.364766    0.565526    0.042593     0.004505
AU56   AU        0.400929    0.594070    0.036924     0.007504
AU57   AU        0.435141    0.564288    0.038878     0.007504
AU58   AU        0.468463    0.594293    0.042265     0.007504
PT59   PT        0.506162    0.561967    0.038300     0.004505
PT60   PT        0.537814    0.595904    0.042554     0.004505
AU61   AU        0.575279    0.564186    0.041266     0.007504
PT62   PT        0.325393    0.221983    0.110257     0.004505
AU63   AU        0.395246    0.222258    0.113704     0.007504
AU64   AU        0.430131    0.188016    0.108939     0.007504
PT65   PT        0.431050    0.222759    0.076245     0.004505
PT66   PT        0.465352    0.222448    0.110888     0.004505
PT67   PT        0.501866    0.189568    0.110473     0.004505
AU68   AU        0.502016    0.219373    0.076639     0.007504
AU69   AU        0.537001    0.222418    0.111063     0.007504
PT70   PT        0.608788    0.223900    0.106307     0.004505
AU71   AU        0.254838    0.288556    0.117280     0.007504
PT72   PT        0.291522    0.253102    0.109423     0.004505
AU73   AU        0.293832    0.316306    0.041875     0.007504
PT74   PT        0.327711    0.287889    0.116015     0.004505
PT75   PT        0.359890    0.253721    0.115901     0.004505
AU76   AU        0.361820    0.285403    0.079810     0.007504
AU77   AU        0.394041    0.256698    0.080323     0.007504
PT78   PT        0.394584    0.287085    0.116758     0.004505
AU79   AU        0.430170    0.255027    0.114724     0.007504
AU80   AU        0.433873    0.283527    0.075189     0.007504
AU81   AU        0.469240    0.253449    0.075006     0.007504
AU82   AU        0.467156    0.282969    0.112733     0.007504
AU83   AU        0.501540    0.253532    0.111421     0.007504
PT84   PT        0.503478    0.284889    0.076156     0.004505
AU85   AU        0.537462    0.252789    0.076144     0.007504
PT86   PT        0.535222    0.285744    0.110970     0.004505
AU87   AU        0.571337    0.255811    0.110888     0.007504
AU88   AU        0.571297    0.284163    0.078838     0.007504
PT89   PT        0.606363    0.284405    0.110200     0.004505
AU90   AU        0.642665    0.254397    0.108147     0.007504
PT91   PT        0.641603    0.287447    0.073009     0.004505
PT92   PT        0.678500    0.286733    0.107406     0.004505
AU93   AU        0.220788    0.317699    0.116651     0.007504
PT94   PT        0.254025    0.349871    0.114742     0.004505
AU95   AU        0.290571    0.319040    0.116397     0.007504
PT96   PT        0.292041    0.348225    0.080842     0.004505
PT97   PT        0.326124    0.318279    0.079652     0.004505
PT98   PT        0.327513    0.348937    0.114799     0.004505
AU99   AU        0.360717    0.318607    0.115266     0.007504
PT100   PT        0.362047    0.349680    0.080965     0.004505
AU101   AU        0.395651    0.315404    0.079227     0.007504
PT102   PT        0.395010    0.346942    0.116048     0.004505
AU103   AU        0.431557    0.313830    0.113345     0.007504
AU104   AU        0.430626    0.348605    0.080595     0.007504
AU105   AU        0.465952    0.317284    0.078102     0.007504
PT106   PT        0.466750    0.349326    0.115645     0.004505
AU107   AU        0.501038    0.315908    0.110219     0.007504
PT108   PT        0.499878    0.348223    0.076578     0.004505
PT109   PT        0.536722    0.315476    0.074427     0.004505
PT110   PT        0.535586    0.346101    0.115854     0.004505
AU111   AU        0.571002    0.316609    0.109186     0.007504
AU112   AU        0.571129    0.349856    0.080809     0.007504
AU113   AU        0.605645    0.316734    0.076140     0.007504
AU114   AU        0.606247    0.348081    0.113506     0.007504
AU115   AU        0.639158    0.317238    0.114112     0.007504
PT116   PT        0.641741    0.347403    0.076745     0.004505
AU117   AU        0.678337    0.344973    0.110231     0.007504
PT118   PT        0.714689    0.315458    0.110220     0.004505
AU119   AU        0.183733    0.410924    0.114373     0.007504
PT120   PT        0.221266    0.381349    0.117927     0.004505
AU121   AU        0.222012    0.410095    0.082865     0.007504
PT122   PT        0.254754    0.380318    0.082327     0.004505
PT123   PT        0.256835    0.412544    0.117078     0.004505
AU124   AU        0.290997    0.378837    0.116381     0.007504
AU125   AU        0.290105    0.409230    0.079569     0.007504
AU126   AU        0.325887    0.379710    0.081338     0.007504
AU127   AU        0.326343    0.410749    0.117871     0.007504
AU128   AU        0.362055    0.380940    0.116041     0.007504
AU129   AU        0.361647    0.410550    0.082714     0.007504
PT130   PT        0.395326    0.380300    0.082033     0.004505
PT131   PT        0.397012    0.409850    0.116389     0.004505
AU132   AU        0.429544    0.379378    0.115447     0.007504
AU133   AU        0.431482    0.411916    0.081048     0.007504
AU134   AU        0.465632    0.379901    0.080792     0.007504
PT135   PT        0.465089    0.408787    0.118396     0.004505
PT136   PT        0.501481    0.379459    0.115161     0.004505
AU137   AU        0.499592    0.411350    0.080066     0.007504
AU138   AU        0.534699    0.378487    0.079364     0.007504
AU139   AU        0.535493    0.410262    0.113900     0.007504
AU140   AU        0.570437    0.378865    0.114636     0.007504
AU141   AU        0.572215    0.409398    0.077557     0.007504
AU142   AU        0.607841    0.378298    0.077897     0.007504
AU143   AU        0.607232    0.410736    0.112393     0.007504
AU144   AU        0.644433    0.377419    0.112716     0.007504
AU145   AU        0.645025    0.408932    0.076159     0.007504
PT146   PT        0.680812    0.378100    0.076635     0.004505
AU147   AU        0.677382    0.407748    0.110956     0.007504
PT148   PT        0.717438    0.376746    0.109397     0.004505
AU149   AU        0.725214    0.408824    0.005720     0.007504
AU150   AU        0.750985    0.408322    0.109147     0.007504
AU151   AU        0.147687    0.475341    0.073374     0.007504
AU152   AU        0.219232    0.440838    0.116468     0.007504
AU153   AU        0.184590    0.500581    0.075918     0.007504
AU154   AU        0.257953    0.441817    0.083541     0.007504
PT155   PT        0.256010    0.471334    0.118169     0.004505
PT156   PT        0.292130    0.442696    0.116652     0.004505
PT157   PT        0.292023    0.472601    0.082846     0.004505
PT158   PT        0.326901    0.440355    0.082556     0.004505
AU159   AU        0.327878    0.472817    0.117426     0.007504
AU160   AU        0.361611    0.440135    0.116809     0.007504
PT161   PT        0.362705    0.471467    0.081039     0.004505
AU162   AU        0.396528    0.441288    0.081318     0.007504
AU163   AU        0.396538    0.473925    0.114298     0.007504
PT164   PT        0.431573    0.441586    0.116363     0.004505
AU165   AU        0.431384    0.472649    0.077228     0.007504
PT166   PT        0.465497    0.441295    0.081737     0.004505
PT167   PT        0.466177    0.471889    0.116240     0.004505
AU168   AU        0.500947    0.439478    0.117645     0.007504
PT169   PT        0.502052    0.469900    0.082704     0.004505
AU170   AU        0.538920    0.439606    0.077565     0.007504
AU171   AU        0.538497    0.471649    0.116967     0.007504
PT172   PT        0.572453    0.441168    0.117140     0.004505
PT173   PT        0.573461    0.469512    0.077307     0.004505
AU174   AU        0.609108    0.440831    0.075760     0.007504
AU175   AU        0.608368    0.468203    0.113780     0.007504
PT176   PT        0.645128    0.439133    0.113070     0.004505
PT177   PT        0.643075    0.469568    0.071885     0.004505
AU178   AU        0.678721    0.439443    0.075854     0.007504
PT179   PT        0.677600    0.470473    0.109022     0.004505
AU180   AU        0.715933    0.436892    0.110607     0.007504
AU181   AU        0.716128    0.468504    0.073361     0.007504
PT182   PT        0.747877    0.467076    0.110652     0.004505
PT183   PT        0.221191    0.501011    0.116265     0.004505
PT184   PT        0.256930    0.501527    0.080668     0.004505
AU185   AU        0.256024    0.531434    0.117810     0.007504
AU186   AU        0.289574    0.502371    0.117154     0.007504
AU187   AU        0.288894    0.531923    0.077460     0.007504
AU188   AU        0.326547    0.500476    0.082011     0.007504
AU189   AU        0.325746    0.535132    0.114729     0.007504
PT190   PT        0.360603    0.503725    0.118856     0.004505
PT191   PT        0.359678    0.534925    0.079896     0.004505
AU192   AU        0.393464    0.503730    0.077557     0.007504
AU193   AU        0.397192    0.533377    0.116241     0.007504
AU194   AU        0.433535    0.502146    0.113968     0.007504
AU195   AU        0.431268    0.533677    0.076030     0.007504
AU196   AU        0.468958    0.503491    0.078476     0.007504
AU197   AU        0.469040    0.534056    0.113636     0.007504
AU198   AU        0.500422    0.503175    0.113598     0.007504
AU199   AU        0.505574    0.535596    0.074766     0.007504
PT200   PT        0.536244    0.500080    0.079190     0.004505
AU201   AU        0.535835    0.532917    0.113849     0.007504
AU202   AU        0.572170    0.499787    0.113953     0.007504
AU203   AU        0.572629    0.530933    0.076376     0.007504
PT204   PT        0.609061    0.500886    0.074448     0.004505
AU205   AU        0.607258    0.530884    0.115025     0.007504
AU206   AU        0.642956    0.499614    0.110432     0.007504
PT207   PT        0.641705    0.531336    0.079098     0.004505
AU208   AU        0.681335    0.501435    0.073784     0.007504
PT209   PT        0.678855    0.532647    0.109956     0.004505
PT210   PT        0.716413    0.501041    0.108030     0.004505
PT211   PT        0.222901    0.564811    0.112639     0.004505
AU212   AU        0.256079    0.594113    0.115130     0.007504
AU213   AU        0.290481    0.563300    0.114243     0.007504
AU214   AU        0.284758    0.630268    0.042292     0.007504
AU215   AU        0.325920    0.567268    0.075674     0.007504
AU216   AU        0.326216    0.593687    0.115393     0.007504
AU217   AU        0.363877    0.566048    0.113948     0.007504
AU218   AU        0.363621    0.596264    0.075455     0.007504
PT219   PT        0.397977    0.563426    0.078350     0.004505
AU220   AU        0.396237    0.597614    0.111329     0.007504
AU221   AU        0.430607    0.563431    0.117459     0.007504
PT222   PT        0.432977    0.593717    0.074279     0.004505
AU223   AU        0.469693    0.564853    0.077003     0.007504
AU224   AU        0.467485    0.593579    0.115939     0.007504
AU225   AU        0.502310    0.563804    0.115547     0.007504
AU226   AU        0.504429    0.594861    0.078381     0.007504
AU227   AU        0.540016    0.563240    0.076866     0.007504
PT228   PT        0.539029    0.595361    0.111860     0.004505
AU229   AU        0.572796    0.561335    0.116388     0.007504
AU230   AU        0.576504    0.593770    0.078249     0.007504
AU231   AU        0.607204    0.563219    0.077705     0.007504
AU232   AU        0.606601    0.594015    0.115080     0.007504
AU233   AU        0.642934    0.564048    0.113183     0.007504
AU234   AU        0.640510    0.595228    0.075983     0.007504
PT235   PT        0.680001    0.592182    0.109679     0.004505
AU236   AU        0.714258    0.559752    0.106435     0.007504
AU237   AU        0.289886    0.626011    0.112296     0.007504
PT238   PT        0.327377    0.658617    0.112881     0.004505
AU239   AU        0.360717    0.624704    0.114505     0.007504
PT240   PT        0.400612    0.624686    0.074807     0.004505
AU241   AU        0.397742    0.655932    0.112604     0.007504
AU242   AU        0.435350    0.626736    0.112795     0.007504
PT243   PT        0.434793    0.657454    0.076621     0.004505
PT244   PT        0.469663    0.625759    0.078279     0.004505
PT245   PT        0.467649    0.657980    0.111755     0.004505
AU246   AU        0.503767    0.626362    0.111725     0.007504
AU247   AU        0.502394    0.657740    0.077377     0.007504
PT248   PT        0.540881    0.628301    0.075182     0.004505
AU249   AU        0.538975    0.655384    0.113178     0.007504
AU250   AU        0.573189    0.624223    0.112464     0.007504
AU251   AU        0.607733    0.654834    0.112640     0.007504
PT252   PT        0.645085    0.622346    0.112682     0.004505
AU253   AU        0.429802    0.687063    0.111883     0.007504
PT254   PT        0.506931    0.686577    0.110498     0.004505
AU255   AU        0.328312    0.155829    0.182300     0.007504
AU256   AU        0.396299    0.160075    0.183245     0.007504
PT257   PT        0.432737    0.128953    0.184164     0.004505
AU258   AU        0.432347    0.160010    0.148012     0.007504
PT259   PT        0.466637    0.162904    0.182449     0.004505
PT260   PT        0.499095    0.128709    0.180607     0.004505
PT261   PT        0.499438    0.161174    0.145319     0.004505
AU262   AU        0.533488    0.160717    0.181574     0.007504
AU263   AU        0.604749    0.158092    0.185014     0.007504
AU264   AU        0.253192    0.224870    0.185672     0.007504
AU265   AU        0.288388    0.188265    0.110667     0.007504
AU266   AU        0.291188    0.221405    0.144878     0.007504
PT267   PT        0.326809    0.194377    0.149750     0.004505
PT268   PT        0.326051    0.224587    0.186257     0.004505
AU269   AU        0.364313    0.192012    0.184896     0.007504
AU270   AU        0.361084    0.226555    0.151303     0.007504
AU271   AU        0.393432    0.189508    0.147594     0.007504
AU272   AU        0.397657    0.222893    0.183319     0.007504
PT273   PT        0.432166    0.189529    0.183805     0.004505
PT274   PT        0.430850    0.220800    0.146964     0.004505
AU275   AU        0.464949    0.191796    0.145455     0.007504
PT276   PT        0.466333    0.224902    0.184238     0.004505
AU277   AU        0.499922    0.193643    0.183715     0.007504
AU278   AU        0.499649    0.221519    0.144445     0.007504
PT279   PT        0.535460    0.191182    0.146729     0.004505
AU280   AU        0.535213    0.223410    0.184065     0.007504
AU281   AU        0.568766    0.192771    0.184316     0.007504
PT282   PT        0.574049    0.224455    0.144978     0.004505
AU283   AU        0.638899    0.189461    0.109166     0.007504
PT284   PT        0.606984    0.222185    0.183176     0.004505
AU285   AU        0.641190    0.190121    0.181011     0.007504
PT286   PT        0.641357    0.220548    0.144051     0.004505
PT287   PT        0.679322    0.220592    0.186231     0.004505
AU288   AU        0.185975    0.288923    0.186090     0.007504
PT289   PT        0.219718    0.257988    0.184613     0.004505
AU290   AU        0.221246    0.286356    0.148998     0.007504
AU291   AU        0.257747    0.255637    0.150598     0.007504
AU292   AU        0.255129    0.286662    0.185437     0.007504
AU293   AU        0.290969    0.252044    0.184679     0.007504
AU294   AU        0.290839    0.287840    0.151420     0.007504
AU295   AU        0.322750    0.253889    0.148460     0.007504
PT296   PT        0.325062    0.285805    0.186219     0.004505
PT297   PT        0.360584    0.256447    0.185827     0.004505
AU298   AU        0.361849    0.287236    0.150016     0.007504
AU299   AU        0.395528    0.255190    0.151205     0.007504
PT300   PT        0.394864    0.287544    0.186471     0.004505
AU301   AU        0.430133    0.256188    0.185664     0.007504
AU302   AU        0.430829    0.286207    0.151715     0.007504
AU303   AU        0.466285    0.253652    0.148586     0.007504
PT304   PT        0.465591    0.285550    0.182474     0.004505
PT305   PT        0.500549    0.255894    0.187843     0.004505
AU306   AU        0.502181    0.284674    0.144665     0.007504
AU307   AU        0.535786    0.253936    0.145464     0.007504
PT308   PT        0.536106    0.283265    0.181368     0.004505
PT309   PT        0.573747    0.251977    0.183482     0.004505
AU310   AU        0.571010    0.285026    0.147757     0.007504
PT311   PT        0.606541    0.256682    0.146104     0.004505
AU312   AU        0.607017    0.284749    0.182013     0.007504
AU313   AU        0.645828    0.252878    0.181530     0.007504
AU314   AU        0.643195    0.285304    0.143218     0.007504
PT315   PT        0.677496    0.256196    0.143565     0.004505
PT316   PT        0.676443    0.286017    0.182823     0.004505
AU317   AU        0.710665    0.253716    0.181192     0.007504
AU318   AU        0.710919    0.285987    0.148503     0.007504
AU319   AU        0.746451    0.283877    0.184157     0.007504
PT320   PT        0.146990    0.318898    0.182113     0.004505
PT321   PT        0.186339    0.316768    0.152288     0.004505
AU322   AU        0.187107    0.348486    0.185638     0.007504
AU323   AU        0.219747    0.317091    0.187277     0.007504
AU324   AU        0.222754    0.349023    0.152118     0.007504
PT325   PT        0.256185    0.319473    0.151700     0.004505
AU326   AU        0.256525    0.348439    0.186974     0.007504
AU327   AU        0.291880    0.318257    0.186025     0.007504
PT328   PT        0.292666    0.349444    0.149890     0.004505
AU329   AU        0.326032    0.318417    0.151464     0.007504
AU330   AU        0.325015    0.349409    0.185153     0.007504
AU331   AU        0.359958    0.317437    0.184433     0.007504
AU332   AU        0.360255    0.348357    0.150705     0.007504
PT333   PT        0.397617    0.318330    0.151269     0.004505
PT334   PT        0.395667    0.348581    0.186647     0.004505
PT335   PT        0.429622    0.317900    0.186360     0.004505
AU336   AU        0.430956    0.347850    0.147514     0.007504
PT337   PT        0.464951    0.316525    0.149660     0.004505
PT338   PT        0.466587    0.347087    0.187394     0.004505
PT339   PT        0.502687    0.315365    0.183375     0.004505
AU340   AU        0.501100    0.345504    0.150177     0.007504
PT341   PT        0.537959    0.314233    0.146917     0.004505
AU342   AU        0.536644    0.347205    0.184906     0.007504
AU343   AU        0.571212    0.315934    0.185264     0.007504
AU344   AU        0.572115    0.346738    0.149037     0.007504
PT345   PT        0.604303    0.313508    0.145338     0.004505
AU346   AU        0.606233    0.346921    0.183749     0.007504
PT347   PT        0.639625    0.316576    0.181859     0.004505
AU348   AU        0.642949    0.346969    0.149015     0.007504
PT349   PT        0.676300    0.316595    0.146190     0.004505
AU350   AU        0.677572    0.347656    0.183655     0.007504
AU351   AU        0.712820    0.317010    0.183704     0.007504
AU352   AU        0.716066    0.347806    0.146370     0.007504
AU353   AU        0.748918    0.312740    0.146953     0.007504
AU354   AU        0.749683    0.345284    0.183323     0.007504
AU355   AU        0.784185    0.312749    0.180867     0.007504
AU356   AU        0.111222    0.413411    0.183129     0.007504
PT357   PT        0.150121    0.378944    0.184930     0.004505
AU358   AU        0.147743    0.409203    0.147129     0.007504
PT359   PT        0.184724    0.379123    0.150714     0.004505
PT360   PT        0.187156    0.410410    0.186715     0.004505
AU361   AU        0.221537    0.378630    0.184979     0.007504
AU362   AU        0.221480    0.409359    0.149967     0.007504
PT363   PT        0.257262    0.378862    0.152613     0.004505
PT364   PT        0.255435    0.410297    0.186584     0.004505
PT365   PT        0.291843    0.380099    0.186192     0.004505
PT366   PT        0.291755    0.409758    0.152011     0.004505
PT367   PT        0.327609    0.378624    0.151169     0.004505
AU368   AU        0.327368    0.409666    0.187577     0.007504
PT369   PT        0.359885    0.378058    0.185888     0.004505
PT370   PT        0.361824    0.409746    0.151005     0.004505
PT371   PT        0.396525    0.378454    0.151289     0.004505
AU372   AU        0.397420    0.409255    0.186397     0.007504
PT373   PT        0.430909    0.379115    0.186200     0.004505
AU374   AU        0.430755    0.410318    0.150952     0.007504
PT375   PT        0.466007    0.378548    0.152224     0.004505
PT376   PT        0.467280    0.408866    0.186520     0.004505
PT377   PT        0.502247    0.377997    0.186766     0.004505
PT378   PT        0.500584    0.409030    0.151548     0.004505
PT379   PT        0.535398    0.377665    0.149953     0.004505
PT380   PT        0.535817    0.408678    0.184590     0.004505
PT381   PT        0.571833    0.378735    0.185927     0.004505
AU382   AU        0.572007    0.407301    0.150120     0.007504
PT383   PT        0.605960    0.377117    0.149569     0.004505
AU384   AU        0.608657    0.409937    0.185840     0.007504
PT385   PT        0.639106    0.376093    0.184664     0.004505
PT386   PT        0.640320    0.408833    0.148881     0.004505
AU387   AU        0.678935    0.378346    0.145354     0.007504
PT388   PT        0.678781    0.406437    0.181554     0.004505
AU389   AU        0.714937    0.377143    0.181207     0.007504
AU390   AU        0.716251    0.407469    0.142759     0.007504
PT391   PT        0.751921    0.379754    0.145919     0.004505
AU392   AU        0.749110    0.408530    0.181920     0.007504
AU393   AU        0.784509    0.377616    0.182328     0.007504
AU394   AU        0.789304    0.408202    0.146106     0.007504
AU395   AU        0.821741    0.409368    0.182808     0.007504
AU396   AU        0.109471    0.466721    0.185070     0.007504
PT397   PT        0.148236    0.441686    0.185913     0.004505
PT398   PT        0.144318    0.468313    0.149858     0.004505
PT399   PT        0.185059    0.440184    0.150894     0.004505
PT400   PT        0.184139    0.472322    0.187139     0.004505
AU401   AU        0.220231    0.440734    0.188027     0.007504
PT402   PT        0.220785    0.472033    0.150927     0.004505
PT403   PT        0.255805    0.440801    0.153373     0.004505
AU404   AU        0.256348    0.472919    0.187095     0.007504
AU405   AU        0.291000    0.439525    0.187490     0.007504
AU406   AU        0.291770    0.470760    0.151266     0.007504
PT407   PT        0.325813    0.439679    0.152750     0.004505
PT408   PT        0.326310    0.471401    0.187625     0.004505
AU409   AU        0.361589    0.440740    0.186115     0.007504
PT410   PT        0.361964    0.471591    0.151123     0.004505
PT411   PT        0.396883    0.439944    0.153243     0.004505
PT412   PT        0.397038    0.470883    0.186890     0.004505
PT413   PT        0.432995    0.440176    0.186978     0.004505
PT414   PT        0.430989    0.471326    0.150233     0.004505
PT415   PT        0.464139    0.439562    0.151939     0.004505
PT416   PT        0.465687    0.472055    0.186571     0.004505
PT417   PT        0.500532    0.441394    0.187357     0.004505
AU418   AU        0.501298    0.470801    0.149404     0.007504
PT419   PT        0.535506    0.438920    0.151806     0.004505
PT420   PT        0.537293    0.470073    0.186835     0.004505
PT421   PT        0.572079    0.438189    0.185227     0.004505
AU422   AU        0.570245    0.469290    0.152793     0.007504
AU423   AU        0.606736    0.440945    0.150623     0.007504
AU424   AU        0.607880    0.471610    0.186705     0.007504
AU425   AU        0.644133    0.439950    0.186741     0.007504
PT426   PT        0.645536    0.470019    0.149211     0.004505
AU427   AU        0.680323    0.437843    0.147932     0.007504
PT428   PT        0.681112    0.469755    0.183940     0.004505
AU429   AU        0.713652    0.436707    0.182302     0.007504
AU430   AU        0.714197    0.468233    0.144858     0.007504
AU431   AU        0.750432    0.436913    0.143910     0.007504
PT432   PT        0.749618    0.469006    0.179416     0.004505
AU433   AU        0.783923    0.440132    0.180013     0.007504
AU434   AU        0.785406    0.468070    0.141375     0.007504
AU435   AU        0.818096    0.468075    0.175033     0.007504
PT436   PT        0.147811    0.499089    0.186124     0.004505
PT437   PT        0.188823    0.532837    0.109892     0.004505
PT438   PT        0.184453    0.531535    0.181405     0.004505
AU439   AU        0.220797    0.502717    0.185064     0.007504
PT440   PT        0.222633    0.532405    0.152043     0.004505
PT441   PT        0.257008    0.501975    0.152458     0.004505
AU442   AU        0.256809    0.532118    0.188087     0.007504
PT443   PT        0.291193    0.503114    0.186406     0.004505
PT444   PT        0.290936    0.533247    0.151941     0.004505
PT445   PT        0.325016    0.502821    0.151430     0.004505
AU446   AU        0.325451    0.531872    0.187396     0.007504
AU447   AU        0.361133    0.502132    0.185605     0.007504
PT448   PT        0.360453    0.531694    0.151808     0.004505
AU449   AU        0.395831    0.501373    0.151321     0.007504
AU450   AU        0.396239    0.532197    0.185943     0.007504
PT451   PT        0.431304    0.501671    0.185515     0.004505
AU452   AU        0.432034    0.531351    0.149634     0.007504
AU453   AU        0.467257    0.502999    0.151257     0.007504
PT454   PT        0.466890    0.531119    0.186768     0.004505
AU455   AU        0.502237    0.500675    0.186681     0.007504
PT456   PT        0.500072    0.531480    0.150668     0.004505
PT457   PT        0.536876    0.501973    0.152115     0.004505
PT458   PT        0.535167    0.531641    0.187025     0.004505
AU459   AU        0.569844    0.501573    0.186641     0.007504
PT460   PT        0.570202    0.532504    0.150748     0.004505
PT461   PT        0.608034    0.500595    0.150273     0.004505
AU462   AU        0.605669    0.531971    0.184627     0.007504
AU463   AU        0.645582    0.500939    0.183841     0.007504
PT464   PT        0.644348    0.533952    0.146823     0.004505
AU465   AU        0.678785    0.502081    0.144127     0.007504
AU466   AU        0.680954    0.532869    0.185781     0.007504
AU467   AU        0.714024    0.500543    0.178614     0.007504
AU468   AU        0.715314    0.529528    0.144425     0.007504
PT469   PT        0.751491    0.498781    0.143239     0.004505
AU470   AU        0.749991    0.532928    0.180500     0.007504
AU471   AU        0.784982    0.502565    0.179864     0.007504
AU472   AU        0.146917    0.561739    0.184314     0.007504
PT473   PT        0.185381    0.562388    0.146111     0.004505
AU474   AU        0.184179    0.594643    0.184593     0.007504
PT475   PT        0.220166    0.562509    0.184323     0.004505
AU476   AU        0.218599    0.593871    0.149773     0.007504
AU477   AU        0.256568    0.563985    0.149779     0.007504
PT478   PT        0.256186    0.593517    0.186656     0.004505
PT479   PT        0.293037    0.563206    0.186117     0.004505
PT480   PT        0.292901    0.595024    0.150884     0.004505
PT481   PT        0.327261    0.562142    0.152377     0.004505
AU482   AU        0.327494    0.594394    0.186265     0.007504
AU483   AU        0.360979    0.562518    0.186397     0.007504
AU484   AU        0.363335    0.594807    0.151612     0.007504
AU485   AU        0.397639    0.563828    0.152644     0.007504
PT486   PT        0.396665    0.592964    0.188089     0.004505
PT487   PT        0.433343    0.560873    0.187518     0.004505
PT488   PT        0.430835    0.594728    0.153114     0.004505
AU489   AU        0.466775    0.563668    0.151655     0.007504
PT490   PT        0.467615    0.594518    0.184257     0.004505
PT491   PT        0.501165    0.562147    0.184828     0.004505
AU492   AU        0.503417    0.596422    0.150176     0.007504
AU493   AU        0.534711    0.562485    0.150985     0.007504
AU494   AU        0.537434    0.594898    0.183790     0.007504
PT495   PT        0.571426    0.563986    0.185560     0.004505
AU496   AU        0.573068    0.593273    0.150147     0.007504
AU497   AU        0.607216    0.562724    0.150097     0.007504
AU498   AU        0.607481    0.592219    0.186934     0.007504
PT499   PT        0.642230    0.561742    0.184445     0.004505
PT500   PT        0.645746    0.592176    0.149052     0.004505
AU501   AU        0.682677    0.562615    0.145888     0.007504
AU502   AU        0.680446    0.593058    0.182878     0.007504
PT503   PT        0.716830    0.565719    0.182006     0.004505
PT504   PT        0.716288    0.596306    0.141540     0.004505
AU505   AU        0.750607    0.562919    0.144412     0.007504
PT506   PT        0.750997    0.595693    0.182331     0.004505
PT507   PT        0.786161    0.563138    0.179746     0.004505
AU508   AU        0.218096    0.624618    0.184604     0.007504
AU509   AU        0.256925    0.623408    0.149730     0.007504
AU510   AU        0.254613    0.654631    0.182903     0.007504
AU511   AU        0.291962    0.624193    0.186036     0.007504
AU512   AU        0.290736    0.657733    0.148169     0.007504
AU513   AU        0.324609    0.626246    0.149262     0.007504
PT514   PT        0.325753    0.654905    0.187574     0.004505
PT515   PT        0.361882    0.624635    0.187358     0.004505
PT516   PT        0.361499    0.654621    0.151119     0.004505
PT517   PT        0.396553    0.625608    0.151373     0.004505
AU518   AU        0.397875    0.656677    0.188540     0.007504
PT519   PT        0.431839    0.624044    0.185658     0.004505
AU520   AU        0.432643    0.657892    0.149049     0.007504
AU521   AU        0.469615    0.625246    0.149838     0.007504
AU522   AU        0.468549    0.656641    0.185371     0.007504
AU523   AU        0.501532    0.624874    0.186866     0.007504
PT524   PT        0.504379    0.655691    0.146586     0.004505
AU525   AU        0.539894    0.625909    0.150108     0.007504
AU526   AU        0.536462    0.655857    0.183197     0.007504
AU527   AU        0.575287    0.624277    0.184146     0.007504
AU528   AU        0.575525    0.655145    0.148187     0.007504
AU529   AU        0.608025    0.623347    0.148795     0.007504
AU530   AU        0.608227    0.657211    0.182308     0.007504
AU531   AU        0.643519    0.624129    0.185334     0.007504
PT532   PT        0.642023    0.655637    0.146125     0.004505
AU533   AU        0.679203    0.623574    0.148573     0.007504
PT534   PT        0.679978    0.657877    0.182756     0.004505
PT535   PT        0.714359    0.623517    0.184720     0.004505
AU536   AU        0.291992    0.688187    0.180913     0.007504
AU537   AU        0.328435    0.688400    0.149649     0.007504
PT538   PT        0.330434    0.720053    0.184658     0.004505
PT539   PT        0.361538    0.686134    0.183697     0.004505
AU540   AU        0.394224    0.687830    0.149011     0.007504
PT541   PT        0.398143    0.717118    0.185608     0.004505
PT542   PT        0.432389    0.687434    0.185427     0.004505
PT543   PT        0.431781    0.719219    0.147842     0.004505
AU544   AU        0.469133    0.687271    0.146952     0.007504
AU545   AU        0.468415    0.719544    0.180656     0.007504
AU546   AU        0.502467    0.686764    0.181703     0.007504
AU547   AU        0.503913    0.717575    0.144806     0.007504
AU548   AU        0.540628    0.686694    0.146621     0.007504
AU549   AU        0.536580    0.717625    0.182745     0.007504
AU550   AU        0.572867    0.687174    0.182512     0.007504
PT551   PT        0.608303    0.688771    0.145113     0.004505
AU552   AU        0.606543    0.717067    0.179530     0.007504
PT553   PT        0.641773    0.687782    0.182735     0.004505
PT554   PT        0.469376    0.747290    0.140405     0.004505
PT555   PT        0.502420    0.751175    0.180559     0.004505
AU556   AU        0.399742    0.099093    0.254964     0.007504
PT557   PT        0.470794    0.095173    0.254825     0.004505
AU558   AU        0.537637    0.096659    0.251275     0.007504
AU559   AU        0.253816    0.159320    0.250227     0.007504
AU560   AU        0.292072    0.126801    0.252847     0.007504
AU561   AU        0.328750    0.126698    0.218631     0.007504
AU562   AU        0.327513    0.158513    0.253826     0.007504
AU563   AU        0.363350    0.126639    0.254618     0.007504
PT564   PT        0.361809    0.159750    0.219377     0.004505
PT565   PT        0.397145    0.130793    0.219981     0.004505
AU566   AU        0.397363    0.161673    0.253281     0.007504
PT567   PT        0.430778    0.129900    0.256189     0.004505
PT568   PT        0.430641    0.162548    0.219446     0.004505
AU569   AU        0.466928    0.131099    0.222153     0.007504
PT570   PT        0.464326    0.161965    0.254228     0.004505
AU571   AU        0.502469    0.128783    0.254370     0.007504
AU572   AU        0.500649    0.160226    0.217197     0.007504
PT573   PT        0.537307    0.128917    0.214715     0.004505
PT574   PT        0.533448    0.162967    0.254133     0.004505
PT575   PT        0.569225    0.131061    0.253780     0.004505
PT576   PT        0.570598    0.160353    0.217998     0.004505
AU577   AU        0.608342    0.157680    0.256520     0.007504
AU578   AU        0.644499    0.126459    0.257900     0.007504
AU579   AU        0.640577    0.158174    0.219165     0.007504
PT580   PT        0.678216    0.156842    0.252963     0.004505
PT581   PT        0.185294    0.225063    0.255760     0.004505
AU582   AU        0.219927    0.193383    0.255398     0.007504
AU583   AU        0.220860    0.225268    0.219064     0.007504
AU584   AU        0.255839    0.194072    0.219447     0.007504
AU585   AU        0.254551    0.225622    0.254216     0.007504
PT586   PT        0.291206    0.194686    0.252492     0.004505
PT587   PT        0.290932    0.225857    0.222573     0.004505
PT588   PT        0.328025    0.192942    0.219303     0.004505
AU589   AU        0.325049    0.223949    0.256759     0.007504
AU590   AU        0.359199    0.192569    0.256148     0.007504
PT591   PT        0.360664    0.224559    0.220472     0.004505
AU592   AU        0.398741    0.193881    0.219929     0.007504
PT593   PT        0.396137    0.224338    0.254373     0.004505
AU594   AU        0.429866    0.193795    0.256521     0.007504
PT595   PT        0.430872    0.224876    0.221336     0.004505
AU596   AU        0.465064    0.194091    0.218348     0.007504
PT597   PT        0.465703    0.225247    0.255196     0.004505
PT598   PT        0.498901    0.192571    0.253645     0.004505
AU599   AU        0.500336    0.225090    0.220902     0.007504
AU600   AU        0.535703    0.193767    0.222202     0.007504
PT601   PT        0.532995    0.224326    0.256564     0.004505
AU602   AU        0.568819    0.194105    0.256415     0.007504
AU603   AU        0.571508    0.224279    0.218439     0.007504
AU604   AU        0.604539    0.190554    0.219957     0.007504
AU605   AU        0.607173    0.224010    0.256093     0.007504
PT606   PT        0.639772    0.190865    0.252801     0.004505
AU607   AU        0.645146    0.222402    0.220350     0.007504
PT608   PT        0.678607    0.189179    0.221449     0.004505
PT609   PT        0.680081    0.221874    0.253852     0.004505
AU610   AU        0.716299    0.190406    0.253381     0.007504
AU611   AU        0.716317    0.221565    0.219069     0.007504
AU612   AU        0.752312    0.222365    0.258581     0.007504
PT613   PT        0.116955    0.222603    0.247763     0.004505
AU614   AU        0.150064    0.254788    0.254354     0.007504
PT615   PT        0.149100    0.289386    0.219381     0.004505
AU616   AU        0.184293    0.256348    0.219401     0.007504
PT617   PT        0.185216    0.288974    0.254977     0.004505
AU618   AU        0.219800    0.255722    0.255263     0.007504
AU619   AU        0.220897    0.286210    0.222309     0.007504
AU620   AU        0.255319    0.257244    0.219369     0.007504
AU621   AU        0.255458    0.284255    0.256642     0.007504
PT622   PT        0.291574    0.257382    0.255943     0.004505
AU623   AU        0.290964    0.286844    0.222120     0.007504
PT624   PT        0.326756    0.256789    0.220532     0.004505
PT625   PT        0.325472    0.286634    0.255689     0.004505
AU626   AU        0.360389    0.257287    0.256497     0.007504
PT627   PT        0.360803    0.285228    0.220237     0.004505
AU628   AU        0.395377    0.256095    0.219703     0.007504
PT629   PT        0.394523    0.286863    0.254612     0.004505
AU630   AU        0.430156    0.256617    0.256744     0.007504
AU631   AU        0.429272    0.286501    0.220154     0.007504
PT632   PT        0.465485    0.257889    0.221999     0.004505
PT633   PT        0.464415    0.286609    0.257450     0.004505
AU634   AU        0.499430    0.254500    0.255902     0.007504
PT635   PT        0.502345    0.286969    0.220517     0.004505
PT636   PT        0.536333    0.255641    0.221688     0.004505
PT637   PT        0.533556    0.286441    0.255801     0.004505
PT638   PT        0.571727    0.254470    0.256862     0.004505
AU639   AU        0.573357    0.284234    0.220652     0.007504
PT640   PT        0.608015    0.255458    0.220846     0.004505
PT641   PT        0.607363    0.285239    0.255645     0.004505
AU642   AU        0.645761    0.257792    0.255818     0.007504
PT643   PT        0.641582    0.286935    0.218236     0.004505
AU644   AU        0.681882    0.255331    0.220991     0.007504
PT645   PT        0.680366    0.287603    0.255995     0.004505
AU646   AU        0.715520    0.253923    0.255091     0.007504
AU647   AU        0.714013    0.286575    0.221088     0.007504
AU648   AU        0.750166    0.252713    0.220336     0.007504
PT649   PT        0.752448    0.286390    0.252277     0.004505
PT650   PT        0.785791    0.254835    0.256084     0.004505
AU651   AU        0.786128    0.284222    0.217239     0.007504
AU652   AU        0.865504    0.318698    0.256841     0.007504
AU653   AU        0.116382    0.349201    0.254912     0.007504
PT654   PT        0.148398    0.317837    0.256096     0.004505
AU655   AU        0.150208    0.347981    0.219821     0.007504
AU656   AU        0.184306    0.318399    0.220169     0.007504
AU657   AU        0.186395    0.348078    0.255116     0.007504
PT658   PT        0.221358    0.318238    0.255634     0.004505
AU659   AU        0.221531    0.347248    0.220782     0.007504
PT660   PT        0.254608    0.316886    0.221806     0.004505
PT661   PT        0.255800    0.349046    0.254451     0.004505
AU662   AU        0.290870    0.316093    0.257129     0.007504
PT663   PT        0.290089    0.347861    0.222720     0.004505
PT664   PT        0.327053    0.316033    0.220916     0.004505
PT665   PT        0.325889    0.350688    0.256093     0.004505
AU666   AU        0.359089    0.316292    0.256066     0.007504
PT667   PT        0.361024    0.347071    0.221857     0.004505
AU668   AU        0.395737    0.318200    0.222172     0.007504
PT669   PT        0.396697    0.347367    0.256004     0.004505
AU670   AU        0.429921    0.315449    0.255584     0.007504
AU671   AU        0.430344    0.346972    0.220628     0.007504
PT672   PT        0.466083    0.315831    0.221809     0.004505
PT673   PT        0.465247    0.347137    0.255595     0.004505
PT674   PT        0.500916    0.316932    0.255461     0.004505
AU675   AU        0.502066    0.347280    0.221591     0.007504
PT676   PT        0.536944    0.317214    0.219896     0.004505
AU677   AU        0.536589    0.346096    0.256305     0.007504
PT678   PT        0.572520    0.316743    0.254228     0.004505
AU679   AU        0.573615    0.347813    0.220104     0.007504
PT680   PT        0.606083    0.315095    0.218014     0.004505
PT681   PT        0.605459    0.346117    0.254909     0.004505
AU682   AU        0.642031    0.315559    0.255438     0.007504
AU683   AU        0.640131    0.346240    0.220978     0.007504
PT684   PT        0.678976    0.317074    0.221504     0.004505
AU685   AU        0.678100    0.348318    0.254855     0.007504
PT686   PT        0.717330    0.318129    0.256632     0.004505
AU687   AU        0.714913    0.348403    0.218710     0.007504
AU688   AU        0.751595    0.316541    0.220491     0.007504
PT689   PT        0.754191    0.348145    0.256541     0.004505
PT690   PT        0.788319    0.313707    0.251060     0.004505
AU691   AU        0.789250    0.346197    0.217178     0.007504
AU692   AU        0.822699    0.348024    0.251070     0.007504
PT693   PT        0.081244    0.379076    0.256782     0.004505
AU694   AU        0.113150    0.379187    0.219156     0.007504
AU695   AU        0.115482    0.408931    0.256374     0.007504
PT696   PT        0.150500    0.378846    0.257471     0.004505
PT697   PT        0.148528    0.408836    0.219000     0.004505
AU698   AU        0.184390    0.379790    0.220213     0.007504
AU699   AU        0.187534    0.409734    0.255918     0.007504
AU700   AU        0.220189    0.379922    0.255156     0.007504
AU701   AU        0.222294    0.409821    0.222143     0.007504
PT702   PT        0.255088    0.378608    0.220502     0.004505
PT703   PT        0.255879    0.410975    0.256500     0.004505
AU704   AU        0.290862    0.379466    0.255539     0.007504
PT705   PT        0.291641    0.410436    0.221399     0.004505
AU706   AU        0.327408    0.378673    0.220673     0.007504
AU707   AU        0.327525    0.410334    0.255987     0.007504
AU708   AU        0.360692    0.379239    0.256554     0.007504
PT709   PT        0.361825    0.408611    0.220867     0.004505
PT710   PT        0.396545    0.377935    0.221781     0.004505
PT711   PT        0.396297    0.408953    0.257662     0.004505
PT712   PT        0.430400    0.377711    0.255852     0.004505
PT713   PT        0.432980    0.409745    0.221217     0.004505
PT714   PT        0.465081    0.378871    0.221267     0.004505
AU715   AU        0.465571    0.409598    0.256139     0.007504
AU716   AU        0.500415    0.376482    0.255567     0.007504
PT717   PT        0.502084    0.408928    0.221416     0.004505
AU718   AU        0.536166    0.377398    0.221174     0.007504
PT719   PT        0.536697    0.408676    0.255677     0.004505
AU720   AU        0.570690    0.377967    0.255220     0.007504
PT721   PT        0.569852    0.410071    0.220602     0.004505
PT722   PT        0.607393    0.380741    0.221323     0.004505
PT723   PT        0.607672    0.409391    0.254448     0.004505
PT724   PT        0.642785    0.378235    0.254635     0.004505
PT725   PT        0.646148    0.406862    0.218881     0.004505
AU726   AU        0.680975    0.378133    0.219831     0.007504
PT727   PT        0.679034    0.407455    0.253642     0.004505
AU728   AU        0.715664    0.376728    0.256152     0.007504
AU729   AU        0.716536    0.407299    0.218623     0.007504
AU730   AU        0.751855    0.375599    0.218342     0.007504
AU731   AU        0.748406    0.408474    0.257885     0.007504
PT732   PT        0.785780    0.380660    0.253719     0.004505
AU733   AU        0.784251    0.411197    0.216096     0.007504
PT734   PT        0.824370    0.380174    0.219179     0.004505
AU735   AU        0.821619    0.410794    0.255489     0.007504
AU736   AU        0.858772    0.380551    0.256065     0.007504
PT737   PT        0.078155    0.440690    0.256302     0.004505
AU738   AU        0.111619    0.440588    0.221231     0.007504
AU739   AU        0.113781    0.472089    0.257813     0.007504
PT740   PT        0.149909    0.439825    0.255509     0.004505
PT741   PT        0.148234    0.472575    0.221614     0.004505
AU742   AU        0.185165    0.440575    0.221980     0.007504
AU743   AU        0.183748    0.471504    0.255430     0.007504
PT744   PT        0.220597    0.439951    0.255529     0.004505
AU745   AU        0.220861    0.470814    0.221135     0.007504
AU746   AU        0.255544    0.441069    0.221857     0.007504
PT747   PT        0.255288    0.471706    0.256596     0.004505
PT748   PT        0.291343    0.440672    0.256418     0.004505
PT749   PT        0.291182    0.470879    0.221961     0.004505
PT750   PT        0.325824    0.440720    0.221134     0.004505
PT751   PT        0.326262    0.471813    0.255760     0.004505
PT752   PT        0.361713    0.439680    0.256700     0.004505
PT753   PT        0.362326    0.470905    0.220795     0.004505
PT754   PT        0.395273    0.439662    0.221299     0.004505
PT755   PT        0.395745    0.470591    0.256355     0.004505
PT756   PT        0.431145    0.439674    0.255592     0.004505
AU757   AU        0.432173    0.472036    0.221719     0.007504
AU758   AU        0.466952    0.439562    0.222780     0.007504
PT759   PT        0.467310    0.470339    0.255296     0.004505
PT760   PT        0.501538    0.439369    0.256672     0.004505
PT761   PT        0.501368    0.470864    0.222857     0.004505
AU762   AU        0.537275    0.440846    0.220547     0.007504
AU763   AU        0.536005    0.470039    0.257303     0.007504
PT764   PT        0.570335    0.440476    0.258341     0.004505
PT765   PT        0.570613    0.469886    0.221938     0.004505
AU766   AU        0.604743    0.440279    0.220338     0.007504
AU767   AU        0.606528    0.471733    0.255249     0.007504
AU768   AU        0.644686    0.440224    0.255762     0.007504
AU769   AU        0.645356    0.472303    0.221469     0.007504
AU770   AU        0.682310    0.440571    0.218783     0.007504
AU771   AU        0.681169    0.470995    0.256228     0.007504
PT772   PT        0.714850    0.441340    0.255967     0.004505
PT773   PT        0.716598    0.473584    0.216726     0.004505
PT774   PT        0.750063    0.443345    0.221240     0.004505
AU775   AU        0.749237    0.471150    0.257199     0.007504
AU776   AU        0.787142    0.441809    0.255008     0.007504
AU777   AU        0.787358    0.472186    0.215438     0.007504
AU778   AU        0.819577    0.440955    0.217287     0.007504
AU779   AU        0.823854    0.472021    0.252028     0.007504
PT780   PT        0.857536    0.438371    0.252983     0.004505
AU781   AU        0.080231    0.502223    0.255234     0.007504
AU782   AU        0.114831    0.501626    0.219777     0.007504
PT783   PT        0.114301    0.531226    0.253354     0.004505
AU784   AU        0.152113    0.501998    0.258056     0.007504
PT785   PT        0.152102    0.532083    0.221317     0.004505
PT786   PT        0.187288    0.502518    0.221690     0.004505
PT787   PT        0.186493    0.533028    0.255781     0.004505
PT788   PT        0.219396    0.501643    0.256563     0.004505
AU789   AU        0.223455    0.533102    0.221277     0.007504
PT790   PT        0.258170    0.501312    0.222270     0.004505
AU791   AU        0.256336    0.533096    0.256183     0.007504
AU792   AU        0.290323    0.502593    0.256934     0.007504
PT793   PT        0.292042    0.532339    0.222557     0.004505
AU794   AU        0.325593    0.502123    0.222625     0.007504
AU795   AU        0.326309    0.531964    0.255974     0.007504
PT796   PT        0.362667    0.502211    0.255790     0.004505
PT797   PT        0.361254    0.531463    0.222184     0.004505
AU798   AU        0.396691    0.502921    0.220766     0.007504
AU799   AU        0.397573    0.532544    0.258162     0.007504
AU800   AU        0.431504    0.500866    0.255811     0.007504
PT801   PT        0.431667    0.531308    0.222324     0.004505
PT802   PT        0.466199    0.502105    0.222133     0.004505
PT803   PT        0.465157    0.532855    0.257147     0.004505
PT804   PT        0.501022    0.501372    0.255048     0.004505
PT805   PT        0.500895    0.532118    0.222226     0.004505
AU806   AU        0.534219    0.501026    0.221345     0.007504
PT807   PT        0.536883    0.532757    0.256454     0.004505
AU808   AU        0.569399    0.500688    0.255642     0.007504
AU809   AU        0.569782    0.531734    0.220859     0.007504
AU810   AU        0.606045    0.502908    0.220455     0.007504
PT811   PT        0.605412    0.531938    0.257524     0.004505
PT812   PT        0.641270    0.501979    0.255375     0.004505
PT813   PT        0.643428    0.532791    0.219302     0.004505
AU814   AU        0.680996    0.501783    0.219406     0.007504
AU815   AU        0.678623    0.531176    0.258032     0.007504
AU816   AU        0.716492    0.501264    0.256906     0.007504
AU817   AU        0.714835    0.532075    0.219781     0.007504
AU818   AU        0.747471    0.501031    0.217014     0.007504
PT819   PT        0.751111    0.531821    0.255599     0.004505
PT820   PT        0.784727    0.499507    0.254778     0.004505
PT821   PT        0.788272    0.532112    0.215364     0.004505
AU822   AU        0.824361    0.502298    0.215821     0.007504
PT823   PT        0.822723    0.532548    0.252483     0.004505
PT824   PT        0.858466    0.503315    0.249408     0.004505
PT825   PT        0.109136    0.591474    0.257372     0.004505
PT826   PT        0.146696    0.562545    0.255708     0.004505
PT827   PT        0.146261    0.593205    0.222144     0.004505
PT828   PT        0.184599    0.564011    0.218852     0.004505
AU829   AU        0.184363    0.592504    0.256725     0.007504
AU830   AU        0.221367    0.561699    0.256556     0.007504
PT831   PT        0.220828    0.592972    0.220862     0.004505
PT832   PT        0.257348    0.563648    0.221795     0.004505
AU833   AU        0.256436    0.594346    0.255722     0.007504
PT834   PT        0.289128    0.563876    0.256768     0.004505
PT835   PT        0.292448    0.594385    0.221128     0.004505
AU836   AU        0.326455    0.563740    0.221599     0.007504
PT837   PT        0.326228    0.593541    0.255936     0.004505
PT838   PT        0.361432    0.563374    0.255475     0.004505
AU839   AU        0.362441    0.594859    0.220685     0.007504
PT840   PT        0.397178    0.562692    0.222718     0.004505
AU841   AU        0.396916    0.593004    0.258268     0.007504
PT842   PT        0.432162    0.562866    0.256423     0.004505
PT843   PT        0.431334    0.593185    0.221182     0.004505
PT844   PT        0.466707    0.563881    0.221357     0.004505
PT845   PT        0.468109    0.594158    0.256097     0.004505
PT846   PT        0.501463    0.562855    0.256078     0.004505
PT847   PT        0.502923    0.595241    0.219417     0.004505
PT848   PT        0.536791    0.563370    0.222254     0.004505
PT849   PT        0.535308    0.592938    0.257122     0.004505
AU850   AU        0.570665    0.562218    0.255959     0.007504
AU851   AU        0.570474    0.593420    0.218535     0.007504
PT852   PT        0.606047    0.562553    0.220115     0.004505
AU853   AU        0.607079    0.593640    0.255041     0.007504
PT854   PT        0.641058    0.562626    0.257560     0.004505
PT855   PT        0.641136    0.593788    0.221582     0.004505
AU856   AU        0.679220    0.561077    0.220541     0.007504
AU857   AU        0.677649    0.591369    0.256496     0.007504
PT858   PT        0.714247    0.563169    0.258663     0.004505
AU859   AU        0.713961    0.592369    0.221550     0.007504
AU860   AU        0.751039    0.564819    0.217280     0.007504
AU861   AU        0.753702    0.591798    0.255509     0.007504
AU862   AU        0.788682    0.562539    0.255407     0.007504
AU863   AU        0.788176    0.594231    0.215651     0.007504
AU864   AU        0.828184    0.625163    0.224784     0.007504
AU865   AU        0.150642    0.627244    0.257729     0.007504
AU866   AU        0.183693    0.624598    0.221135     0.007504
AU867   AU        0.184943    0.656168    0.257240     0.007504
AU868   AU        0.219733    0.624548    0.256105     0.007504
AU869   AU        0.217191    0.657377    0.218247     0.007504
PT870   PT        0.256351    0.624539    0.221404     0.004505
PT871   PT        0.254171    0.655439    0.253788     0.004505
PT872   PT        0.292215    0.624283    0.256712     0.004505
AU873   AU        0.292017    0.656764    0.221580     0.007504
PT874   PT        0.326840    0.624818    0.222023     0.004505
PT875   PT        0.328109    0.654510    0.256704     0.004505
AU876   AU        0.363813    0.623940    0.255711     0.007504
AU877   AU        0.362474    0.655295    0.221160     0.007504
PT878   PT        0.397022    0.624185    0.221487     0.004505
PT879   PT        0.396617    0.654572    0.257167     0.004505
PT880   PT        0.432310    0.623110    0.256992     0.004505
AU881   AU        0.431601    0.654565    0.222750     0.007504
AU882   AU        0.467410    0.625414    0.221077     0.007504
AU883   AU        0.465550    0.655008    0.256625     0.007504
AU884   AU        0.502476    0.624977    0.258148     0.007504
PT885   PT        0.504442    0.656754    0.220488     0.004505
AU886   AU        0.538363    0.625356    0.219243     0.007504
AU887   AU        0.538184    0.656273    0.255676     0.007504
AU888   AU        0.571613    0.623368    0.255484     0.007504
AU889   AU        0.573124    0.655055    0.217873     0.007504
AU890   AU        0.607748    0.624308    0.220912     0.007504
AU891   AU        0.607491    0.653688    0.256493     0.007504
AU892   AU        0.642383    0.624502    0.257418     0.007504
PT893   PT        0.645326    0.655015    0.215626     0.004505
PT894   PT        0.680162    0.623206    0.218548     0.004505
AU895   AU        0.675435    0.655782    0.253863     0.007504
AU896   AU        0.712898    0.622589    0.256919     0.007504
PT897   PT        0.711929    0.653115    0.221212     0.004505
AU898   AU        0.746888    0.623400    0.221496     0.007504
AU899   AU        0.749515    0.659833    0.253618     0.007504
PT900   PT        0.786735    0.624311    0.257716     0.004505
PT901   PT        0.220444    0.688002    0.254746     0.004505
AU902   AU        0.255344    0.685922    0.217981     0.007504
AU903   AU        0.259436    0.717074    0.254884     0.007504
AU904   AU        0.291930    0.685406    0.257709     0.007504
PT905   PT        0.290193    0.719478    0.218141     0.004505
AU906   AU        0.326317    0.687052    0.222145     0.007504
PT907   PT        0.325593    0.718809    0.257884     0.004505
AU908   AU        0.361372    0.686532    0.257733     0.007504
AU909   AU        0.360731    0.717890    0.222639     0.007504
PT910   PT        0.397029    0.687904    0.222483     0.004505
AU911   AU        0.396991    0.716882    0.257686     0.007504
AU912   AU        0.431353    0.685437    0.256231     0.007504
AU913   AU        0.434451    0.718541    0.220427     0.007504
AU914   AU        0.466332    0.684921    0.221590     0.007504
AU915   AU        0.470417    0.718940    0.255549     0.007504
AU916   AU        0.501440    0.685414    0.254563     0.007504
PT917   PT        0.502539    0.717483    0.218938     0.004505
PT918   PT        0.537464    0.688237    0.219420     0.004505
PT919   PT        0.535704    0.716340    0.256869     0.004505
AU920   AU        0.573574    0.686295    0.251600     0.007504
PT921   PT        0.574201    0.718451    0.214034     0.004505
PT922   PT        0.607738    0.686754    0.215829     0.004505
AU923   AU        0.606821    0.718311    0.252426     0.007504
AU924   AU        0.642715    0.686501    0.251828     0.007504
PT925   PT        0.643376    0.719162    0.217197     0.004505
AU926   AU        0.678171    0.688148    0.220159     0.007504
PT927   PT        0.682245    0.720225    0.251619     0.004505
PT928   PT        0.712793    0.688168    0.256164     0.004505
AU929   AU        0.289131    0.750576    0.256001     0.007504
AU930   AU        0.361872    0.748305    0.258106     0.007504
PT931   PT        0.398704    0.746210    0.221777     0.004505
AU932   AU        0.397118    0.779530    0.251669     0.007504
PT933   PT        0.434220    0.750556    0.254755     0.004505
AU934   AU        0.470579    0.749908    0.219213     0.007504
AU935   AU        0.472624    0.780241    0.255906     0.007504
AU936   AU        0.505159    0.750626    0.252263     0.007504
AU937   AU        0.535821    0.749887    0.215513     0.007504
PT938   PT        0.538062    0.780371    0.252782     0.004505
AU939   AU        0.570358    0.745650    0.255417     0.007504
AU940   AU        0.647462    0.750885    0.253575     0.007504
PT941   PT        0.324966    0.097430    0.328310     0.004505
AU942   AU        0.409645    0.058748    0.298177     0.007504
AU943   AU        0.395100    0.096598    0.323569     0.007504
PT944   PT        0.432240    0.096415    0.288814     0.004505
AU945   AU        0.469098    0.097538    0.323257     0.007504
PT946   PT        0.506502    0.095786    0.290561     0.004505
AU947   AU        0.538081    0.097716    0.327144     0.007504
AU948   AU        0.569126    0.097238    0.289260     0.007504
AU949   AU        0.606750    0.095648    0.324123     0.007504
AU950   AU        0.222962    0.157972    0.287742     0.007504
AU951   AU        0.255141    0.160295    0.324882     0.007504
AU952   AU        0.291536    0.128643    0.326299     0.007504
AU953   AU        0.289894    0.162374    0.287700     0.007504
AU954   AU        0.325783    0.130451    0.291326     0.007504
AU955   AU        0.324751    0.161458    0.326021     0.007504
AU956   AU        0.359624    0.130965    0.326774     0.007504
AU957   AU        0.360872    0.163263    0.291742     0.007504
AU958   AU        0.394730    0.132983    0.289926     0.007504
AU959   AU        0.396133    0.163378    0.324495     0.007504
AU960   AU        0.433847    0.129162    0.323979     0.007504
PT961   PT        0.429833    0.162163    0.288588     0.004505
AU962   AU        0.466050    0.128860    0.289001     0.007504
PT963   PT        0.466412    0.158393    0.326002     0.004505
PT964   PT        0.501637    0.128932    0.326314     0.004505
AU965   AU        0.499953    0.161469    0.290426     0.007504
AU966   AU        0.538101    0.131397    0.290903     0.007504
PT967   PT        0.534898    0.162614    0.328498     0.004505
AU968   AU        0.572540    0.127469    0.328054     0.007504
AU969   AU        0.570947    0.161159    0.289849     0.007504
PT970   PT        0.605149    0.130144    0.292609     0.004505
AU971   AU        0.608199    0.161196    0.326842     0.007504
AU972   AU        0.642117    0.126255    0.324453     0.007504
PT973   PT        0.642720    0.160504    0.290533     0.004505
PT974   PT        0.675843    0.157470    0.324512     0.004505
PT975   PT        0.714176    0.156646    0.284578     0.004505
AU976   AU        0.147863    0.223872    0.289012     0.007504
AU977   AU        0.185435    0.191919    0.290098     0.007504
AU978   AU        0.185631    0.222898    0.325816     0.007504
AU979   AU        0.223477    0.191540    0.324920     0.007504
PT980   PT        0.221071    0.222893    0.291162     0.004505
AU981   AU        0.255820    0.192029    0.287195     0.007504
PT982   PT        0.257209    0.224639    0.326955     0.004505
AU983   AU        0.290196    0.194108    0.323681     0.007504
PT984   PT        0.289667    0.224778    0.290570     0.004505
PT985   PT        0.326090    0.193726    0.290490     0.004505
AU986   AU        0.325621    0.225667    0.325760     0.007504
PT987   PT        0.361695    0.194938    0.326968     0.004505
AU988   AU        0.361728    0.224496    0.289909     0.007504
PT989   PT        0.394557    0.194558    0.291678     0.004505
AU990   AU        0.395630    0.224773    0.327848     0.007504
PT991   PT        0.429808    0.193866    0.326304     0.004505
PT992   PT        0.430153    0.225000    0.291988     0.004505
PT993   PT        0.465190    0.193977    0.291582     0.004505
AU994   AU        0.465955    0.225903    0.326406     0.007504
AU995   AU        0.501638    0.192494    0.325784     0.007504
PT996   PT        0.500113    0.223105    0.291433     0.004505
PT997   PT        0.534666    0.191285    0.289563     0.004505
AU998   AU        0.535633    0.225925    0.324887     0.007504
PT999   PT        0.569366    0.192397    0.323382     0.004505
PT1000   PT        0.568913    0.224390    0.291019     0.004505
AU1001   AU        0.605156    0.192741    0.288922     0.007504
AU1002   AU        0.607222    0.225269    0.323111     0.007504
AU1003   AU        0.640960    0.191904    0.326727     0.007504
AU1004   AU        0.642560    0.223766    0.289849     0.007504
PT1005   PT        0.676289    0.189768    0.287055     0.004505
PT1006   PT        0.678175    0.220220    0.325541     0.004505
AU1007   AU        0.709817    0.186748    0.321818     0.007504
PT1008   PT        0.714630    0.220070    0.291259     0.004505
AU1009   AU        0.750614    0.189022    0.290263     0.007504
AU1010   AU        0.753350    0.223088    0.322467     0.007504
AU1011   AU        0.789671    0.219742    0.287336     0.007504
PT1012   PT        0.113290    0.281719    0.325833     0.004505
AU1013   AU        0.150864    0.255378    0.323891     0.007504
AU1014   AU        0.149593    0.286622    0.290616     0.007504
AU1015   AU        0.185350    0.256567    0.290888     0.007504
PT1016   PT        0.186067    0.286844    0.325719     0.004505
AU1017   AU        0.221032    0.254579    0.326415     0.007504
PT1018   PT        0.220928    0.286482    0.290364     0.004505
PT1019   PT        0.255323    0.254657    0.291926     0.004505
AU1020   AU        0.254543    0.286975    0.326499     0.007504
PT1021   PT        0.290088    0.256103    0.327344     0.004505
AU1022   AU        0.291315    0.287432    0.290198     0.007504
PT1023   PT        0.325087    0.255744    0.290302     0.004505
AU1024   AU        0.325469    0.285437    0.326327     0.007504
AU1025   AU        0.360523    0.255563    0.325265     0.007504
AU1026   AU        0.359095    0.287694    0.292252     0.007504
PT1027   PT        0.394825    0.255639    0.290796     0.004505
AU1028   AU        0.395315    0.287210    0.324912     0.007504
PT1029   PT        0.429533    0.254547    0.326871     0.004505
PT1030   PT        0.430870    0.286724    0.292464     0.004505
AU1031   AU        0.466238    0.255704    0.291320     0.007504
AU1032   AU        0.465617    0.285721    0.325711     0.007504
PT1033   PT        0.500023    0.254603    0.325218     0.004505
PT1034   PT        0.501104    0.287394    0.291141     0.004505
PT1035   PT        0.533998    0.256232    0.290341     0.004505
PT1036   PT        0.536055    0.286433    0.325559     0.004505
AU1037   AU        0.571531    0.255130    0.324913     0.007504
PT1038   PT        0.569911    0.286659    0.289889     0.004505
AU1039   AU        0.606362    0.255112    0.289249     0.007504
PT1040   PT        0.605975    0.285455    0.323989     0.004505
PT1041   PT        0.645789    0.253160    0.326473     0.004505
PT1042   PT        0.640213    0.284424    0.292246     0.004505
PT1043   PT        0.681650    0.254041    0.290467     0.004505
PT1044   PT        0.678922    0.286918    0.325256     0.004505
AU1045   AU        0.714873    0.252776    0.327175     0.007504
PT1046   PT        0.718841    0.283237    0.287644     0.004505
AU1047   AU        0.750712    0.257838    0.290474     0.007504
PT1048   PT        0.752186    0.286031    0.328378     0.004505
AU1049   AU        0.787518    0.254580    0.322241     0.007504
PT1050   PT        0.786450    0.287787    0.289306     0.004505
AU1051   AU        0.821543    0.283844    0.326252     0.007504
PT1052   PT        0.077457    0.312691    0.322806     0.004505
AU1053   AU        0.078999    0.347881    0.292306     0.007504
PT1054   PT        0.115542    0.316043    0.293309     0.004505
PT1055   PT        0.113910    0.347544    0.326719     0.004505
PT1056   PT        0.151932    0.315705    0.325342     0.004505
AU1057   AU        0.151630    0.346396    0.292209     0.007504
PT1058   PT        0.186558    0.316981    0.291801     0.004505
AU1059   AU        0.185968    0.349675    0.325956     0.007504
PT1060   PT        0.219428    0.317280    0.325973     0.004505
PT1061   PT        0.221200    0.348943    0.292592     0.004505
PT1062   PT        0.255659    0.316386    0.290769     0.004505
PT1063   PT        0.255818    0.347147    0.326839     0.004505
PT1064   PT        0.290490    0.317109    0.326620     0.004505
PT1065   PT        0.290064    0.347303    0.291500     0.004505
PT1066   PT        0.325335    0.319419    0.292473     0.004505
PT1067   PT        0.324217    0.347958    0.324966     0.004505
PT1068   PT        0.359229    0.317346    0.325821     0.004505
PT1069   PT        0.361965    0.348000    0.289400     0.004505
PT1070   PT        0.394788    0.316590    0.290818     0.004505
PT1071   PT        0.394425    0.347275    0.325960     0.004505
AU1072   AU        0.430793    0.317932    0.326791     0.007504
AU1073   AU        0.430821    0.348339    0.291756     0.007504
PT1074   PT        0.464907    0.316625    0.291411     0.004505
PT1075   PT        0.466466    0.347728    0.326532     0.004505
AU1076   AU        0.498889    0.316113    0.326428     0.007504
PT1077   PT        0.499357    0.346465    0.291841     0.004505
AU1078   AU        0.536091    0.316950    0.290596     0.007504
AU1079   AU        0.537862    0.346437    0.326386     0.007504
AU1080   AU        0.573019    0.315966    0.326248     0.007504
AU1081   AU        0.571205    0.346163    0.290814     0.007504
PT1082   PT        0.608053    0.317667    0.290329     0.004505
AU1083   AU        0.605831    0.346866    0.326647     0.007504
PT1084   PT        0.643655    0.317354    0.323136     0.004505
PT1085   PT        0.642110    0.347351    0.289635     0.004505
AU1086   AU        0.680659    0.316850    0.289186     0.007504
AU1087   AU        0.676436    0.347890    0.323649     0.007504
AU1088   AU        0.713974    0.314158    0.326182     0.007504
PT1089   PT        0.716703    0.347837    0.290874     0.004505
AU1090   AU        0.750402    0.317513    0.288793     0.007504
AU1091   AU        0.749081    0.346874    0.326759     0.007504
AU1092   AU        0.788388    0.317303    0.328648     0.007504
PT1093   PT        0.786845    0.345050    0.289660     0.004505
PT1094   PT        0.827156    0.318679    0.290489     0.004505
AU1095   AU        0.823470    0.346515    0.326833     0.007504
AU1096   AU        0.858633    0.311359    0.328400     0.007504
PT1097   PT        0.858297    0.350329    0.289024     0.004505
PT1098   PT        0.078714    0.377736    0.328084     0.004505
AU1099   AU        0.079225    0.408185    0.292884     0.007504
AU1100   AU        0.115865    0.378686    0.293627     0.007504
PT1101   PT        0.115297    0.410142    0.326033     0.004505
PT1102   PT        0.151619    0.377118    0.328883     0.004505
AU1103   AU        0.152252    0.409278    0.293026     0.007504
PT1104   PT        0.187111    0.380391    0.291601     0.004505
PT1105   PT        0.183792    0.410543    0.326111     0.004505
AU1106   AU        0.221687    0.379762    0.325785     0.007504
PT1107   PT        0.222085    0.410794    0.291430     0.004505
PT1108   PT        0.255197    0.379110    0.289891     0.004505
PT1109   PT        0.255754    0.410369    0.326215     0.004505
PT1110   PT        0.290747    0.377821    0.325692     0.004505
AU1111   AU        0.291366    0.409095    0.291704     0.007504
AU1112   AU        0.326492    0.378824    0.291781     0.007504
PT1113   PT        0.326075    0.409354    0.326545     0.004505
PT1114   PT        0.360646    0.379414    0.326135     0.004505
AU1115   AU        0.358910    0.410467    0.292120     0.007504
AU1116   AU        0.395664    0.378506    0.290417     0.007504
PT1117   PT        0.394649    0.409672    0.326352     0.004505
AU1118   AU        0.429804    0.377133    0.325705     0.007504
PT1119   PT        0.430751    0.409068    0.290469     0.004505
PT1120   PT        0.465239    0.378598    0.290381     0.004505
PT1121   PT        0.465281    0.409861    0.326398     0.004505
PT1122   PT        0.502237    0.377522    0.325295     0.004505
PT1123   PT        0.501900    0.408461    0.291804     0.004505
PT1124   PT        0.535615    0.377491    0.291270     0.004505
AU1125   AU        0.536155    0.410371    0.326799     0.007504
PT1126   PT        0.569258    0.378358    0.326354     0.004505
AU1127   AU        0.573044    0.409000    0.290712     0.007504
PT1128   PT        0.605738    0.377124    0.289784     0.004505
PT1129   PT        0.606186    0.408779    0.325579     0.004505
AU1130   AU        0.643357    0.377302    0.325085     0.007504
PT1131   PT        0.641036    0.408926    0.291208     0.004505
PT1132   PT        0.678228    0.377383    0.288746     0.004505
AU1133   AU        0.677806    0.409219    0.326727     0.007504
PT1134   PT        0.710439    0.378466    0.326292     0.004505
PT1135   PT        0.712118    0.409798    0.291262     0.004505
PT1136   PT        0.752793    0.375927    0.291927     0.004505
PT1137   PT        0.748662    0.408993    0.327301     0.004505
PT1138   PT        0.787521    0.379319    0.325466     0.004505
AU1139   AU        0.785203    0.408913    0.292349     0.007504
AU1140   AU        0.822233    0.380303    0.289852     0.007504
AU1141   AU        0.823458    0.412007    0.326481     0.007504
AU1142   AU        0.857382    0.378593    0.325247     0.007504
AU1143   AU        0.859398    0.410167    0.290022     0.007504
AU1144   AU        0.077191    0.441135    0.322999     0.007504
AU1145   AU        0.077617    0.470574    0.290268     0.007504
PT1146   PT        0.116914    0.439793    0.290994     0.004505
AU1147   AU        0.112306    0.471174    0.324736     0.007504
AU1148   AU        0.150033    0.441192    0.325462     0.007504
PT1149   PT        0.152199    0.471176    0.292145     0.004505
AU1150   AU        0.187325    0.438828    0.291516     0.007504
AU1151   AU        0.187312    0.472331    0.325296     0.007504
PT1152   PT        0.220046    0.440902    0.327346     0.004505
PT1153   PT        0.222143    0.470729    0.291575     0.004505
AU1154   AU        0.256964    0.440857    0.291383     0.007504
PT1155   PT        0.255724    0.470886    0.327283     0.004505
AU1156   AU        0.291785    0.439501    0.325448     0.007504
PT1157   PT        0.290306    0.472194    0.291648     0.004505
PT1158   PT        0.325011    0.440728    0.290603     0.004505
PT1159   PT        0.325993    0.470994    0.326992     0.004505
PT1160   PT        0.359969    0.440314    0.325235     0.004505
PT1161   PT        0.363227    0.470965    0.290265     0.004505
PT1162   PT        0.395814    0.441170    0.291249     0.004505
PT1163   PT        0.396399    0.471973    0.326600     0.004505
PT1164   PT        0.430239    0.439558    0.325014     0.004505
PT1165   PT        0.433009    0.471927    0.291317     0.004505
PT1166   PT        0.467739    0.439612    0.290777     0.004505
PT1167   PT        0.465286    0.471462    0.325990     0.004505
PT1168   PT        0.501252    0.441594    0.326589     0.004505
PT1169   PT        0.500415    0.470667    0.291224     0.004505
PT1170   PT        0.534531    0.440104    0.291981     0.004505
AU1171   AU        0.537776    0.471775    0.326022     0.007504
PT1172   PT        0.571427    0.438175    0.324403     0.004505
AU1173   AU        0.572584    0.470197    0.291671     0.007504
AU1174   AU        0.607640    0.440325    0.290738     0.007504
AU1175   AU        0.606505    0.469742    0.326257     0.007504
PT1176   PT        0.639980    0.438953    0.327120     0.004505
PT1177   PT        0.641366    0.471462    0.291000     0.004505
PT1178   PT        0.675773    0.441540    0.291641     0.004505
AU1179   AU        0.675565    0.471174    0.326289     0.007504
AU1180   AU        0.711807    0.440993    0.327179     0.007504
AU1181   AU        0.713472    0.470157    0.292313     0.007504
AU1182   AU        0.748549    0.440667    0.292754     0.007504
AU1183   AU        0.749985    0.471266    0.327556     0.007504
AU1184   AU        0.783435    0.440419    0.328015     0.007504
AU1185   AU        0.785703    0.468806    0.293225     0.007504
AU1186   AU        0.823483    0.441003    0.290741     0.007504
PT1187   PT        0.822687    0.470655    0.325110     0.004505
PT1188   PT        0.859715    0.441789    0.325098     0.004505
AU1189   AU        0.859295    0.471078    0.287019     0.007504
PT1190   PT        0.074730    0.502111    0.325440     0.004505
PT1191   PT        0.082595    0.531818    0.290963     0.004505
AU1192   AU        0.114384    0.501127    0.291748     0.007504
AU1193   AU        0.114566    0.531211    0.326861     0.007504
AU1194   AU        0.149547    0.500338    0.326841     0.007504
PT1195   PT        0.150832    0.533848    0.289314     0.004505
PT1196   PT        0.185966    0.502780    0.294108     0.004505
AU1197   AU        0.185455    0.533859    0.326676     0.007504
PT1198   PT        0.222106    0.501871    0.325544     0.004505
PT1199   PT        0.221591    0.532709    0.292725     0.004505
PT1200   PT        0.256324    0.502085    0.291352     0.004505
AU1201   AU        0.255390    0.533042    0.327027     0.007504
PT1202   PT        0.291833    0.501674    0.326204     0.004505
PT1203   PT        0.292046    0.532612    0.291655     0.004505
AU1204   AU        0.326972    0.502215    0.292074     0.007504
PT1205   PT        0.326584    0.532425    0.326927     0.004505
PT1206   PT        0.360134    0.501783    0.326327     0.004505
PT1207   PT        0.362891    0.532337    0.290930     0.004505
PT1208   PT        0.395242    0.501109    0.291272     0.004505
PT1209   PT        0.397401    0.532632    0.326264     0.004505
AU1210   AU        0.430520    0.500944    0.325825     0.007504
PT1211   PT        0.430654    0.531589    0.292703     0.004505
PT1212   PT        0.466500    0.502597    0.289628     0.004505
PT1213   PT        0.466583    0.531981    0.325929     0.004505
AU1214   AU        0.500568    0.499928    0.327361     0.007504
PT1215   PT        0.502910    0.531244    0.291917     0.004505
PT1216   PT        0.535749    0.501651    0.291328     0.004505
PT1217   PT        0.536150    0.531268    0.325598     0.004505
PT1218   PT        0.572034    0.501850    0.327323     0.004505
PT1219   PT        0.571353    0.533642    0.291015     0.004505
PT1220   PT        0.606946    0.502004    0.290880     0.004505
AU1221   AU        0.606005    0.532093    0.327297     0.007504
PT1222   PT        0.638763    0.501228    0.326105     0.004505
AU1223   AU        0.641303    0.531905    0.292195     0.007504
AU1224   AU        0.677785    0.500787    0.292366     0.007504
AU1225   AU        0.677953    0.531182    0.327002     0.007504
AU1226   AU        0.714558    0.500850    0.327598     0.007504
AU1227   AU        0.713803    0.530921    0.293478     0.007504
PT1228   PT        0.752107    0.502111    0.292158     0.004505
PT1229   PT        0.750064    0.532200    0.329376     0.004505
AU1230   AU        0.785646    0.501813    0.327256     0.007504
PT1231   PT        0.786007    0.533473    0.291473     0.004505
AU1232   AU        0.823646    0.501154    0.290591     0.007504
AU1233   AU        0.822177    0.532563    0.324641     0.007504
PT1234   PT        0.856022    0.501405    0.327294     0.004505
AU1235   AU        0.859111    0.531191    0.288398     0.007504
PT1236   PT        0.079457    0.561936    0.326105     0.004505
AU1237   AU        0.117426    0.562718    0.293200     0.007504
AU1238   AU        0.114084    0.594955    0.327792     0.007504
AU1239   AU        0.152165    0.562725    0.328255     0.007504
AU1240   AU        0.147423    0.595426    0.291675     0.007504
AU1241   AU        0.185057    0.563350    0.291301     0.007504
AU1242   AU        0.187653    0.594066    0.326224     0.007504
AU1243   AU        0.222087    0.563684    0.326935     0.007504
PT1244   PT        0.221048    0.592753    0.292028     0.004505
PT1245   PT        0.256368    0.562764    0.292406     0.004505
AU1246   AU        0.255940    0.593777    0.326596     0.007504
PT1247   PT        0.291734    0.563465    0.328500     0.004505
AU1248   AU        0.292294    0.593651    0.292382     0.007504
AU1249   AU        0.326382    0.562235    0.291010     0.007504
AU1250   AU        0.327148    0.594051    0.326447     0.007504
PT1251   PT        0.360948    0.562440    0.326656     0.004505
AU1252   AU        0.360958    0.593842    0.291055     0.007504
PT1253   PT        0.396342    0.563169    0.291887     0.004505
PT1254   PT        0.396679    0.593010    0.325162     0.004505
PT1255   PT        0.432121    0.562416    0.325476     0.004505
PT1256   PT        0.431550    0.592764    0.292132     0.004505
PT1257   PT        0.465635    0.562275    0.291512     0.004505
PT1258   PT        0.467675    0.593965    0.328747     0.004505
PT1259   PT        0.500128    0.561565    0.326209     0.004505
PT1260   PT        0.501211    0.591722    0.291035     0.004505
PT1261   PT        0.536633    0.561360    0.292573     0.004505
PT1262   PT        0.535795    0.593947    0.325983     0.004505
PT1263   PT        0.571046    0.562360    0.324787     0.004505
AU1264   AU        0.571257    0.594322    0.291446     0.007504
PT1265   PT        0.605947    0.564392    0.290826     0.004505
AU1266   AU        0.605895    0.592343    0.327675     0.007504
AU1267   AU        0.643169    0.563099    0.327815     0.007504
AU1268   AU        0.641992    0.592913    0.290763     0.007504
AU1269   AU        0.676551    0.562110    0.291254     0.007504
AU1270   AU        0.676902    0.592355    0.326338     0.007504
AU1271   AU        0.711619    0.561293    0.324830     0.007504
PT1272   PT        0.712735    0.593841    0.292626     0.004505
AU1273   AU        0.750555    0.562420    0.292917     0.007504
PT1274   PT        0.747156    0.593491    0.325983     0.004505
AU1275   AU        0.784362    0.563276    0.327647     0.007504
AU1276   AU        0.785111    0.592747    0.293610     0.007504
AU1277   AU        0.821913    0.564548    0.289953     0.007504
AU1278   AU        0.819968    0.593222    0.326237     0.007504
PT1279   PT        0.857238    0.562646    0.324069     0.004505
AU1280   AU        0.149705    0.626432    0.324806     0.007504
AU1281   AU        0.147928    0.658913    0.291189     0.007504
PT1282   PT        0.187648    0.625171    0.290888     0.004505
AU1283   AU        0.184417    0.655661    0.324777     0.007504
PT1284   PT        0.221314    0.624363    0.326239     0.004505
PT1285   PT        0.223125    0.654850    0.291457     0.004505
PT1286   PT        0.256538    0.624241    0.292484     0.004505
PT1287   PT        0.256677    0.655537    0.327406     0.004505
AU1288   AU        0.291903    0.623535    0.327642     0.007504
AU1289   AU        0.291012    0.655070    0.290639     0.007504
PT1290   PT        0.326556    0.624007    0.291000     0.004505
PT1291   PT        0.327307    0.654964    0.327782     0.004505
PT1292   PT        0.361700    0.623108    0.327058     0.004505
PT1293   PT        0.359904    0.653639    0.291555     0.004505
PT1294   PT        0.397287    0.623246    0.292093     0.004505
PT1295   PT        0.396077    0.654754    0.326750     0.004505
PT1296   PT        0.433241    0.623831    0.326161     0.004505
PT1297   PT        0.431069    0.653301    0.292059     0.004505
AU1298   AU        0.467309    0.623767    0.290455     0.007504
PT1299   PT        0.467290    0.655293    0.325831     0.004505
PT1300   PT        0.502034    0.624627    0.324566     0.004505
AU1301   AU        0.503135    0.655677    0.290471     0.007504
PT1302   PT        0.537756    0.623254    0.291306     0.004505
PT1303   PT        0.537871    0.654309    0.328231     0.004505
AU1304   AU        0.571825    0.624211    0.325124     0.007504
PT1305   PT        0.572306    0.655192    0.289929     0.004505
AU1306   AU        0.607505    0.622983    0.293188     0.007504
PT1307   PT        0.605516    0.655030    0.328082     0.004505
PT1308   PT        0.642201    0.622984    0.327055     0.004505
PT1309   PT        0.641554    0.654896    0.292568     0.004505
AU1310   AU        0.677568    0.623680    0.292248     0.007504
AU1311   AU        0.680353    0.655722    0.328145     0.007504
AU1312   AU        0.712541    0.624405    0.326425     0.007504
AU1313   AU        0.713181    0.654181    0.288764     0.007504
AU1314   AU        0.749865    0.625838    0.288226     0.007504
AU1315   AU        0.748710    0.656478    0.325556     0.007504
PT1316   PT        0.783608    0.625085    0.325223     0.004505
AU1317   AU        0.785142    0.658944    0.289705     0.007504
AU1318   AU        0.187989    0.684976    0.292171     0.007504
AU1319   AU        0.221213    0.686009    0.327376     0.007504
PT1320   PT        0.222804    0.714977    0.290280     0.004505
PT1321   PT        0.256828    0.685004    0.291831     0.004505
AU1322   AU        0.257254    0.718099    0.327251     0.007504
PT1323   PT        0.292516    0.687424    0.324378     0.004505
PT1324   PT        0.289382    0.717812    0.290912     0.004505
AU1325   AU        0.326371    0.686171    0.291819     0.007504
PT1326   PT        0.324297    0.719280    0.325170     0.004505
PT1327   PT        0.361991    0.685704    0.326724     0.004505
AU1328   AU        0.361569    0.717213    0.292371     0.007504
PT1329   PT        0.396314    0.685602    0.291317     0.004505
PT1330   PT        0.396680    0.716767    0.326251     0.004505
AU1331   AU        0.430062    0.685133    0.327053     0.007504
AU1332   AU        0.433336    0.716401    0.292276     0.007504
PT1333   PT        0.468549    0.687400    0.291273     0.004505
PT1334   PT        0.467618    0.717033    0.326971     0.004505
AU1335   AU        0.501889    0.685960    0.326244     0.007504
PT1336   PT        0.502109    0.718575    0.291696     0.004505
PT1337   PT        0.537065    0.685105    0.291061     0.004505
AU1338   AU        0.536916    0.715023    0.325579     0.007504
AU1339   AU        0.573227    0.684258    0.326573     0.007504
AU1340   AU        0.572536    0.716561    0.290624     0.007504
AU1341   AU        0.607391    0.687345    0.288967     0.007504
PT1342   PT        0.607905    0.716380    0.326254     0.004505
PT1343   PT        0.641348    0.685932    0.325222     0.004505
AU1344   AU        0.644830    0.718373    0.285095     0.007504
AU1345   AU        0.678800    0.683673    0.291821     0.007504
PT1346   PT        0.676116    0.717685    0.324843     0.004505
AU1347   AU        0.715200    0.687427    0.324488     0.007504
PT1348   PT        0.751073    0.716880    0.248371     0.004505
AU1349   AU        0.749554    0.690456    0.289639     0.007504
AU1350   AU        0.290184    0.750045    0.327983     0.007504
PT1351   PT        0.328158    0.749976    0.290222     0.004505
AU1352   AU        0.326117    0.779320    0.324333     0.007504
PT1353   PT        0.362437    0.747405    0.328492     0.004505
AU1354   AU        0.398546    0.812427    0.285275     0.007504
PT1355   PT        0.396337    0.748520    0.290279     0.004505
AU1356   AU        0.395197    0.782923    0.324716     0.007504
AU1357   AU        0.435389    0.749733    0.325415     0.007504
AU1358   AU        0.431301    0.780909    0.286535     0.007504
AU1359   AU        0.468546    0.749976    0.289490     0.007504
AU1360   AU        0.468123    0.781503    0.324244     0.007504
PT1361   PT        0.501050    0.749543    0.327511     0.004505
AU1362   AU        0.502718    0.779393    0.292843     0.007504
AU1363   AU        0.537169    0.749766    0.291540     0.007504
PT1364   PT        0.539801    0.780058    0.326815     0.004505
PT1365   PT        0.573710    0.747824    0.326326     0.004505
AU1366   AU        0.574461    0.779363    0.288692     0.007504
AU1367   AU        0.608819    0.746811    0.288299     0.007504
AU1368   AU        0.651463    0.779388    0.290557     0.007504
PT1369   PT        0.643281    0.748027    0.324255     0.004505
PT1370   PT        0.290384    0.098184    0.362553     0.004505
AU1371   AU        0.326280    0.096639    0.395943     0.007504
PT1372   PT        0.362399    0.095529    0.360149     0.004505
AU1373   AU        0.397402    0.098720    0.395357     0.007504
AU1374   AU        0.432232    0.067047    0.396017     0.007504
PT1375   PT        0.432891    0.097014    0.359687     0.004505
AU1376   AU        0.468894    0.065433    0.363993     0.007504
AU1377   AU        0.467259    0.097067    0.396642     0.007504
PT1378   PT        0.504158    0.070086    0.398344     0.004505
AU1379   AU        0.498624    0.098537    0.359422     0.007504
AU1380   AU        0.537315    0.099982    0.398101     0.007504
PT1381   PT        0.572584    0.094719    0.362879     0.004505
PT1382   PT        0.610359    0.096139    0.394989     0.004505
AU1383   AU        0.646341    0.097005    0.358794     0.007504
AU1384   AU        0.182618    0.159527    0.393130     0.007504
AU1385   AU        0.219281    0.127692    0.397356     0.007504
AU1386   AU        0.223434    0.160300    0.361193     0.007504
AU1387   AU        0.256087    0.127775    0.357988     0.007504
PT1388   PT        0.256561    0.162640    0.396276     0.004505
AU1389   AU        0.290670    0.129046    0.396251     0.007504
AU1390   AU        0.290775    0.161864    0.360677     0.007504
PT1391   PT        0.325876    0.129379    0.362668     0.004505
AU1392   AU        0.326862    0.160475    0.397702     0.007504
AU1393   AU        0.362928    0.130784    0.392937     0.007504
AU1394   AU        0.362470    0.163207    0.362261     0.007504
PT1395   PT        0.397162    0.131332    0.358943     0.004505
AU1396   AU        0.396492    0.163930    0.396926     0.007504
AU1397   AU        0.430410    0.131112    0.397410     0.007504
PT1398   PT        0.429429    0.163059    0.360758     0.004505
PT1399   PT        0.465304    0.133585    0.360170     0.004505
PT1400   PT        0.465202    0.163488    0.395153     0.004505
AU1401   AU        0.500647    0.128916    0.392995     0.007504
PT1402   PT        0.499687    0.162541    0.359926     0.004505
AU1403   AU        0.534694    0.129474    0.359591     0.007504
PT1404   PT        0.536446    0.163056    0.395304     0.004505
AU1405   AU        0.571944    0.129920    0.394251     0.007504
AU1406   AU        0.571182    0.162206    0.360383     0.007504
AU1407   AU        0.609049    0.127229    0.360770     0.007504
PT1408   PT        0.607483    0.161229    0.396543     0.004505
AU1409   AU        0.645638    0.129434    0.395606     0.007504
AU1410   AU        0.643874    0.161579    0.362766     0.007504
AU1411   AU        0.682841    0.128407    0.363095     0.007504
PT1412   PT        0.680980    0.160671    0.396224     0.004505
AU1413   AU        0.720006    0.127076    0.396053     0.007504
AU1414   AU        0.716773    0.160051    0.362464     0.007504
AU1415   AU        0.751995    0.159783    0.398638     0.007504
PT1416   PT        0.111842    0.220576    0.394913     0.004505
AU1417   AU        0.149618    0.193915    0.395570     0.007504
AU1418   AU        0.148867    0.220576    0.357583     0.007504
AU1419   AU        0.185858    0.190852    0.361350     0.007504
AU1420   AU        0.184465    0.223278    0.395275     0.007504
PT1421   PT        0.220516    0.194201    0.397018     0.004505
AU1422   AU        0.220677    0.222495    0.361620     0.007504
AU1423   AU        0.256051    0.193695    0.360952     0.007504
AU1424   AU        0.255963    0.226340    0.396582     0.007504
PT1425   PT        0.291122    0.193174    0.397005     0.004505
PT1426   PT        0.290529    0.225399    0.361545     0.004505
AU1427   AU        0.324449    0.192734    0.359270     0.007504
AU1428   AU        0.325619    0.223882    0.396231     0.007504
AU1429   AU        0.359842    0.195073    0.395869     0.007504
PT1430   PT        0.360440    0.225625    0.359962     0.004505
AU1431   AU        0.395203    0.194602    0.361156     0.007504
PT1432   PT        0.396343    0.225002    0.395501     0.004505
AU1433   AU        0.431456    0.193237    0.396252     0.007504
PT1434   PT        0.430777    0.225472    0.362258     0.004505
PT1435   PT        0.465138    0.194630    0.360369     0.004505
PT1436   PT        0.464726    0.224338    0.397058     0.004505
PT1437   PT        0.500165    0.195142    0.397197     0.004505
PT1438   PT        0.501772    0.226147    0.361701     0.004505
AU1439   AU        0.535687    0.194025    0.360600     0.007504
AU1440   AU        0.534896    0.224254    0.395772     0.007504
AU1441   AU        0.570388    0.193085    0.394576     0.007504
PT1442   PT        0.569324    0.224900    0.359150     0.004505
PT1443   PT        0.605232    0.193920    0.359139     0.004505
PT1444   PT        0.604228    0.223825    0.394864     0.004505
AU1445   AU        0.640718    0.192915    0.396971     0.007504
PT1446   PT        0.641482    0.224329    0.362344     0.004505
PT1447   PT        0.677708    0.190188    0.361713     0.004505
AU1448   AU        0.677514    0.222651    0.395579     0.007504
PT1449   PT        0.716610    0.191604    0.397458     0.004505
PT1450   PT        0.713946    0.221622    0.360583     0.004505
AU1451   AU        0.787335    0.158821    0.360678     0.007504
PT1452   PT        0.753334    0.220897    0.395601     0.004505
PT1453   PT        0.788604    0.190531    0.395802     0.004505
AU1454   AU        0.787974    0.224571    0.360573     0.007504
PT1455   PT        0.822510    0.222327    0.396670     0.004505
PT1456   PT        0.074160    0.282997    0.364952     0.004505
PT1457   PT        0.113910    0.253295    0.363205     0.004505
AU1458   AU        0.114670    0.284580    0.393703     0.007504
AU1459   AU        0.150208    0.253588    0.396638     0.007504
AU1460   AU        0.150236    0.286641    0.361593     0.007504
PT1461   PT        0.184956    0.254480    0.361132     0.004505
AU1462   AU        0.186881    0.285721    0.396630     0.007504
AU1463   AU        0.220691    0.253769    0.396542     0.007504
PT1464   PT        0.220665    0.285893    0.360276     0.004505
PT1465   PT        0.255279    0.255601    0.361999     0.004505
PT1466   PT        0.255457    0.285209    0.396278     0.004505
PT1467   PT        0.291874    0.255124    0.397269     0.004505
AU1468   AU        0.288825    0.287091    0.361600     0.007504
PT1469   PT        0.325362    0.255540    0.362956     0.004505
PT1470   PT        0.325418    0.286732    0.396230     0.004505
AU1471   AU        0.359426    0.255466    0.396059     0.007504
PT1472   PT        0.361677    0.286876    0.360880     0.004505
PT1473   PT        0.393905    0.255499    0.359944     0.004505
PT1474   PT        0.395055    0.286884    0.396710     0.004505
PT1475   PT        0.430983    0.255842    0.395686     0.004505
AU1476   AU        0.430555    0.285347    0.359722     0.007504
AU1477   AU        0.465469    0.256511    0.360676     0.007504
PT1478   PT        0.466268    0.286297    0.396273     0.004505
AU1479   AU        0.500388    0.256489    0.396735     0.007504
PT1480   PT        0.500097    0.286419    0.359749     0.004505
PT1481   PT        0.536693    0.255497    0.361863     0.004505
PT1482   PT        0.533163    0.285821    0.395518     0.004505
PT1483   PT        0.569204    0.253626    0.397108     0.004505
AU1484   AU        0.570407    0.285121    0.361672     0.007504
AU1485   AU        0.607087    0.253824    0.360424     0.007504
AU1486   AU        0.604998    0.284742    0.394970     0.007504
AU1487   AU        0.640417    0.254931    0.394859     0.007504
AU1488   AU        0.642334    0.284879    0.359918     0.007504
AU1489   AU        0.675075    0.252565    0.359165     0.007504
AU1490   AU        0.677698    0.283807    0.392846     0.007504
AU1491   AU        0.717007    0.251222    0.397563     0.007504
AU1492   AU        0.713704    0.283159    0.361728     0.007504
AU1493   AU        0.750256    0.253804    0.361043     0.007504
AU1494   AU        0.748496    0.283136    0.396146     0.007504
PT1495   PT        0.785988    0.252609    0.398155     0.004505
AU1496   AU        0.787010    0.282037    0.362985     0.007504
AU1497   AU        0.820809    0.250629    0.361876     0.007504
PT1498   PT        0.823372    0.282221    0.398785     0.004505
AU1499   AU        0.857835    0.281595    0.363014     0.007504
AU1500   AU        0.078197    0.315581    0.396143     0.007504
PT1501   PT        0.075528    0.342809    0.359581     0.004505
PT1502   PT        0.113304    0.314803    0.356669     0.004505
AU1503   AU        0.112907    0.347673    0.393799     0.007504
PT1504   PT        0.151369    0.316963    0.396533     0.004505
PT1505   PT        0.151471    0.346552    0.360317     0.004505
AU1506   AU        0.185935    0.316678    0.361626     0.007504
PT1507   PT        0.187087    0.348448    0.395526     0.004505
PT1508   PT        0.220476    0.317347    0.396885     0.004505
PT1509   PT        0.220033    0.348074    0.360387     0.004505
PT1510   PT        0.255308    0.317068    0.361738     0.004505
AU1511   AU        0.257824    0.347446    0.395914     0.007504
AU1512   AU        0.290346    0.316452    0.396007     0.007504
PT1513   PT        0.291245    0.347344    0.361349     0.004505
PT1514   PT        0.325907    0.315181    0.361923     0.004505
PT1515   PT        0.327507    0.347485    0.396804     0.004505
PT1516   PT        0.361533    0.316030    0.397184     0.004505
PT1517   PT        0.360582    0.347279    0.362924     0.004505
AU1518   AU        0.396063    0.317059    0.361537     0.007504
PT1519   PT        0.395047    0.346612    0.397438     0.004505
PT1520   PT        0.430001    0.317600    0.395422     0.004505
PT1521   PT        0.429946    0.347018    0.361604     0.004505
PT1522   PT        0.464865    0.316306    0.360657     0.004505
PT1523   PT        0.466615    0.347149    0.396981     0.004505
AU1524   AU        0.501898    0.315405    0.398689     0.007504
PT1525   PT        0.499515    0.346529    0.362689     0.004505
AU1526   AU        0.536323    0.318144    0.359387     0.007504
AU1527   AU        0.535938    0.348299    0.396281     0.007504
PT1528   PT        0.569621    0.315508    0.394698     0.004505
PT1529   PT        0.571393    0.347556    0.362114     0.004505
PT1530   PT        0.607755    0.314754    0.360957     0.004505
AU1531   AU        0.606178    0.345428    0.394993     0.007504
PT1532   PT        0.640898    0.314924    0.395385     0.004505
PT1533   PT        0.640267    0.348137    0.360766     0.004505
AU1534   AU        0.673587    0.317429    0.361094     0.007504
PT1535   PT        0.674976    0.348494    0.395085     0.004505
PT1536   PT        0.710282    0.318161    0.394995     0.004505
PT1537   PT        0.710978    0.347464    0.361805     0.004505
AU1538   AU        0.748157    0.316282    0.362714     0.007504
AU1539   AU        0.749625    0.346846    0.396585     0.007504
PT1540   PT        0.784991    0.312544    0.396149     0.004505
PT1541   PT        0.785168    0.348484    0.362519     0.004505
AU1542   AU        0.824817    0.313569    0.363839     0.007504
AU1543   AU        0.821424    0.347897    0.395601     0.007504
PT1544   PT        0.860464    0.311963    0.397378     0.004505
AU1545   AU        0.861171    0.346900    0.362960     0.007504
AU1546   AU        0.041060    0.408279    0.391991     0.007504
PT1547   PT        0.078690    0.377311    0.394989     0.004505
AU1548   AU        0.078271    0.409374    0.360154     0.007504
PT1549   PT        0.115096    0.379617    0.359741     0.004505
PT1550   PT        0.114487    0.407082    0.396833     0.004505
AU1551   AU        0.151531    0.378430    0.396837     0.007504
AU1552   AU        0.150685    0.410108    0.361143     0.007504
AU1553   AU        0.185687    0.379079    0.361246     0.007504
PT1554   PT        0.186321    0.410239    0.396117     0.004505
AU1555   AU        0.222795    0.378083    0.396600     0.007504
AU1556   AU        0.220920    0.408382    0.362452     0.007504
PT1557   PT        0.256667    0.378792    0.361428     0.004505
PT1558   PT        0.255695    0.409361    0.396815     0.004505
AU1559   AU        0.291255    0.378051    0.395794     0.007504
AU1560   AU        0.291681    0.410321    0.361653     0.007504
AU1561   AU        0.324466    0.378521    0.361392     0.007504
PT1562   PT        0.326023    0.407684    0.396328     0.004505
PT1563   PT        0.360300    0.378630    0.396793     0.004505
PT1564   PT        0.361615    0.408790    0.362261     0.004505
PT1565   PT        0.394327    0.378781    0.360399     0.004505
PT1566   PT        0.395831    0.409308    0.397293     0.004505
PT1567   PT        0.432055    0.378051    0.395342     0.004505
AU1568   AU        0.430110    0.409004    0.360686     0.007504
PT1569   PT        0.465692    0.379069    0.359601     0.004505
AU1570   AU        0.466191    0.408799    0.397311     0.007504
AU1571   AU        0.501170    0.378321    0.397354     0.007504
PT1572   PT        0.501841    0.408745    0.360254     0.004505
PT1573   PT        0.536659    0.378381    0.360002     0.004505
PT1574   PT        0.535608    0.408636    0.395815     0.004505
PT1575   PT        0.568720    0.378512    0.397041     0.004505
PT1576   PT        0.569563    0.409414    0.360848     0.004505
PT1577   PT        0.607469    0.378547    0.359585     0.004505
PT1578   PT        0.606034    0.409109    0.395031     0.004505
AU1579   AU        0.641927    0.378555    0.395328     0.007504
PT1580   PT        0.641810    0.408358    0.359318     0.004505
PT1581   PT        0.675856    0.377811    0.360414     0.004505
PT1582   PT        0.676872    0.408152    0.393725     0.004505
PT1583   PT        0.712520    0.376804    0.396335     0.004505
AU1584   AU        0.712278    0.408879    0.362028     0.007504
AU1585   AU        0.749415    0.376981    0.360862     0.007504
PT1586   PT        0.747565    0.408907    0.397380     0.004505
AU1587   AU        0.784525    0.380630    0.397947     0.007504
AU1588   AU        0.783544    0.408141    0.362594     0.007504
AU1589   AU        0.821334    0.379768    0.363113     0.007504
PT1590   PT        0.821803    0.410202    0.396410     0.004505
PT1591   PT        0.856564    0.379007    0.397023     0.004505
AU1592   AU        0.859254    0.409423    0.361087     0.007504
PT1593   PT        0.896151    0.406823    0.394448     0.004505
PT1594   PT        0.041156    0.442407    0.356701     0.004505
AU1595   AU        0.001571    0.464161    0.436431     0.007504
PT1596   PT        0.078572    0.439397    0.392415     0.004505
PT1597   PT        0.077918    0.468972    0.360235     0.004505
AU1598   AU        0.113619    0.440874    0.357789     0.007504
AU1599   AU        0.113008    0.469397    0.395667     0.007504
AU1600   AU        0.148407    0.438366    0.397617     0.007504
PT1601   PT        0.149454    0.469304    0.360156     0.004505
AU1602   AU        0.186979    0.441072    0.360319     0.007504
PT1603   PT        0.185477    0.468239    0.397642     0.004505
PT1604   PT        0.222135    0.439566    0.396580     0.004505
PT1605   PT        0.221714    0.471140    0.361427     0.004505
PT1606   PT        0.256437    0.439464    0.362567     0.004505
PT1607   PT        0.256600    0.471514    0.395977     0.004505
PT1608   PT        0.291209    0.440881    0.396999     0.004505
PT1609   PT        0.290877    0.469639    0.361838     0.004505
AU1610   AU        0.326493    0.439892    0.360876     0.007504
PT1611   PT        0.326119    0.470353    0.396764     0.004505
PT1612   PT        0.361449    0.440489    0.396565     0.004505
PT1613   PT        0.359760    0.469471    0.361497     0.004505
PT1614   PT        0.396275    0.441031    0.361049     0.004505
PT1615   PT        0.396694    0.472634    0.396653     0.004505
PT1616   PT        0.431011    0.440272    0.397340     0.004505
PT1617   PT        0.430100    0.470579    0.360760     0.004505
PT1618   PT        0.465896    0.439331    0.362152     0.004505
PT1619   PT        0.465198    0.470612    0.396382     0.004505
AU1620   AU        0.500913    0.439442    0.395530     0.007504
PT1621   PT        0.500821    0.471340    0.361071     0.004505
PT1622   PT        0.536044    0.440458    0.359667     0.004505
AU1623   AU        0.535639    0.469598    0.396538     0.007504
AU1624   AU        0.570204    0.439666    0.395863     0.007504
PT1625   PT        0.572158    0.470261    0.360260     0.004505
PT1626   PT        0.607073    0.440267    0.359391     0.004505
PT1627   PT        0.605335    0.471695    0.396374     0.004505
PT1628   PT        0.641517    0.438916    0.395810     0.004505
AU1629   AU        0.641188    0.469872    0.361897     0.007504
AU1630   AU        0.674657    0.440416    0.361016     0.007504
PT1631   PT        0.675397    0.471264    0.396175     0.004505
PT1632   PT        0.709533    0.440454    0.396236     0.004505
PT1633   PT        0.713611    0.471585    0.359572     0.004505
AU1634   AU        0.747229    0.438615    0.362136     0.007504
PT1635   PT        0.746151    0.470979    0.394189     0.004505
PT1636   PT        0.784876    0.440099    0.397473     0.004505
AU1637   AU        0.785556    0.472411    0.361518     0.007504
AU1638   AU        0.819732    0.440965    0.362601     0.007504
PT1639   PT        0.822173    0.471558    0.397377     0.004505
AU1640   AU        0.857690    0.440762    0.392654     0.007504
AU1641   AU        0.854706    0.470917    0.361678     0.007504
AU1642   AU        0.896568    0.440315    0.359214     0.007504
PT1643   PT        0.896053    0.472594    0.396077     0.004505
AU1644   AU        0.079565    0.501831    0.393589     0.007504
AU1645   AU        0.076553    0.531488    0.359780     0.007504
PT1646   PT        0.115040    0.499372    0.362187     0.004505
PT1647   PT        0.113330    0.534980    0.395965     0.004505
AU1648   AU        0.151277    0.501218    0.397068     0.007504
PT1649   PT        0.151078    0.530531    0.361579     0.004505
AU1650   AU        0.187337    0.502089    0.360728     0.007504
PT1651   PT        0.187060    0.532436    0.395471     0.004505
AU1652   AU        0.220525    0.501231    0.398364     0.007504
AU1653   AU        0.221771    0.533169    0.360341     0.007504
PT1654   PT        0.256054    0.501746    0.360300     0.004505
PT1655   PT        0.256434    0.532278    0.397034     0.004505
AU1656   AU        0.291926    0.500828    0.396361     0.007504
PT1657   PT        0.291045    0.532203    0.360987     0.004505
AU1658   AU        0.326716    0.501707    0.361211     0.007504
PT1659   PT        0.325667    0.533360    0.396104     0.004505
PT1660   PT        0.359672    0.501798    0.395722     0.004505
PT1661   PT        0.360459    0.531602    0.361556     0.004505
PT1662   PT        0.395573    0.501284    0.361437     0.004505
PT1663   PT        0.396002    0.530350    0.397677     0.004505
PT1664   PT        0.431521    0.500009    0.397135     0.004505
PT1665   PT        0.432501    0.533269    0.362410     0.004505
AU1666   AU        0.465686    0.502017    0.361501     0.007504
PT1667   PT        0.465472    0.533449    0.395555     0.004505
PT1668   PT        0.500234    0.499797    0.395987     0.004505
AU1669   AU        0.502601    0.533526    0.360470     0.007504
PT1670   PT        0.535366    0.501978    0.362397     0.004505
PT1671   PT        0.535971    0.532014    0.395521     0.004505
AU1672   AU        0.571024    0.501733    0.395968     0.007504
PT1673   PT        0.570847    0.532102    0.363196     0.004505
AU1674   AU        0.605447    0.499794    0.361712     0.007504
PT1675   PT        0.606138    0.532588    0.397434     0.004505
PT1676   PT        0.638871    0.501761    0.397997     0.004505
AU1677   AU        0.640362    0.530869    0.361797     0.007504
PT1678   PT        0.675182    0.501017    0.360888     0.004505
PT1679   PT        0.674108    0.532315    0.397058     0.004505
PT1680   PT        0.713216    0.501186    0.395719     0.004505
PT1681   PT        0.711441    0.531961    0.361319     0.004505
PT1682   PT        0.749080    0.502292    0.363121     0.004505
PT1683   PT        0.747931    0.531829    0.394863     0.004505
PT1684   PT        0.785950    0.503671    0.396022     0.004505
AU1685   AU        0.787473    0.534840    0.361310     0.007504
AU1686   AU        0.820771    0.501127    0.362918     0.007504
AU1687   AU        0.822857    0.533058    0.396581     0.007504
PT1688   PT        0.858973    0.502772    0.394294     0.004505
AU1689   AU        0.857884    0.532651    0.359592     0.007504
PT1690   PT        0.037261    0.591397    0.391470     0.004505
AU1691   AU        0.078609    0.594329    0.361799     0.007504
PT1692   PT        0.115430    0.563396    0.361281     0.004505
AU1693   AU        0.111244    0.593208    0.398030     0.007504
PT1694   PT        0.152136    0.563721    0.396437     0.004505
AU1695   AU        0.149691    0.593313    0.361551     0.007504
PT1696   PT        0.187986    0.562831    0.360712     0.004505
AU1697   AU        0.186651    0.593141    0.395728     0.007504
AU1698   AU        0.221281    0.563063    0.395510     0.007504
PT1699   PT        0.222156    0.593842    0.360992     0.004505
PT1700   PT        0.257072    0.564008    0.361787     0.004505
PT1701   PT        0.256889    0.593369    0.395494     0.004505
PT1702   PT        0.290727    0.562180    0.398041     0.004505
PT1703   PT        0.291264    0.593467    0.361787     0.004505
PT1704   PT        0.325922    0.563282    0.361322     0.004505
PT1705   PT        0.326101    0.592752    0.397573     0.004505
PT1706   PT        0.361687    0.561637    0.395817     0.004505
PT1707   PT        0.362025    0.593181    0.360214     0.004505
AU1708   AU        0.395837    0.562742    0.361377     0.007504
AU1709   AU        0.395694    0.592689    0.395817     0.007504
PT1710   PT        0.431042    0.563004    0.396704     0.004505
PT1711   PT        0.431256    0.592190    0.361293     0.004505
PT1712   PT        0.465907    0.562749    0.362184     0.004505
AU1713   AU        0.466095    0.593838    0.396734     0.007504
PT1714   PT        0.500248    0.561955    0.396736     0.004505
PT1715   PT        0.502085    0.592825    0.362895     0.004505
PT1716   PT        0.536197    0.562397    0.361713     0.004505
PT1717   PT        0.535887    0.592218    0.396850     0.004505
PT1718   PT        0.572099    0.563591    0.398322     0.004505
PT1719   PT        0.573292    0.593725    0.360356     0.004505
PT1720   PT        0.607180    0.562269    0.361229     0.004505
PT1721   PT        0.606442    0.593078    0.396807     0.004505
AU1722   AU        0.640714    0.561667    0.397133     0.007504
PT1723   PT        0.642245    0.593527    0.361548     0.004505
PT1724   PT        0.677914    0.561673    0.362821     0.004505
AU1725   AU        0.676624    0.594287    0.394705     0.007504
AU1726   AU        0.712173    0.563059    0.397533     0.007504
AU1727   AU        0.712303    0.591811    0.361290     0.007504
AU1728   AU        0.750529    0.562967    0.363550     0.007504
AU1729   AU        0.749931    0.593232    0.398443     0.007504
AU1730   AU        0.787092    0.563508    0.397489     0.007504
PT1731   PT        0.783797    0.595730    0.361693     0.004505
PT1732   PT        0.824042    0.563376    0.363582     0.004505
PT1733   PT        0.824406    0.593420    0.398831     0.004505
AU1734   AU        0.860177    0.560733    0.396607     0.007504
AU1735   AU        0.857551    0.591224    0.359076     0.007504
AU1736   AU        0.110879    0.625326    0.360958     0.007504
PT1737   PT        0.108260    0.654161    0.399205     0.004505
PT1738   PT        0.146411    0.623352    0.397006     0.004505
AU1739   AU        0.145931    0.656021    0.362251     0.007504
PT1740   PT        0.186961    0.626280    0.360978     0.004505
AU1741   AU        0.185252    0.655231    0.398610     0.007504
AU1742   AU        0.223305    0.624637    0.397960     0.007504
AU1743   AU        0.221252    0.654127    0.361263     0.007504
PT1744   PT        0.255920    0.623723    0.360805     0.004505
PT1745   PT        0.256960    0.655584    0.396412     0.004505
AU1746   AU        0.291976    0.625044    0.397556     0.007504
PT1747   PT        0.292152    0.656158    0.361962     0.004505
PT1748   PT        0.326301    0.625288    0.363006     0.004505
AU1749   AU        0.326850    0.655973    0.397286     0.007504
AU1750   AU        0.361347    0.624275    0.396832     0.007504
PT1751   PT        0.361081    0.654375    0.361539     0.004505
PT1752   PT        0.396780    0.624447    0.360368     0.004505
PT1753   PT        0.397441    0.654461    0.395857     0.004505
PT1754   PT        0.431219    0.624848    0.397009     0.004505
AU1755   AU        0.431223    0.653921    0.362005     0.007504
PT1756   PT        0.467716    0.624850    0.362240     0.004505
PT1757   PT        0.467666    0.655499    0.396998     0.004505
PT1758   PT        0.501652    0.622788    0.396137     0.004505
AU1759   AU        0.501744    0.655189    0.361103     0.007504
AU1760   AU        0.537900    0.624180    0.361967     0.007504
PT1761   PT        0.535565    0.656605    0.396804     0.004505
AU1762   AU        0.571259    0.623366    0.395960     0.007504
AU1763   AU        0.571244    0.655538    0.362077     0.007504
PT1764   PT        0.606734    0.624792    0.360412     0.004505
AU1765   AU        0.607094    0.653700    0.397041     0.007504
PT1766   PT        0.641929    0.623429    0.396728     0.004505
PT1767   PT        0.640755    0.655844    0.361057     0.004505
PT1768   PT        0.677118    0.624087    0.360777     0.004505
AU1769   AU        0.677996    0.655239    0.395923     0.007504
PT1770   PT        0.710931    0.623231    0.397005     0.004505
PT1771   PT        0.714719    0.654852    0.363261     0.004505
AU1772   AU        0.746738    0.624143    0.361265     0.007504
PT1773   PT        0.751560    0.655511    0.395554     0.004505
PT1774   PT        0.786787    0.624794    0.396546     0.004505
PT1775   PT        0.787636    0.656410    0.359590     0.004505
AU1776   AU        0.819771    0.624196    0.360521     0.007504
AU1777   AU        0.823584    0.656803    0.391638     0.007504
PT1778   PT        0.148255    0.684514    0.394958     0.004505
AU1779   AU        0.185190    0.685911    0.360616     0.007504
AU1780   AU        0.183948    0.718071    0.395181     0.007504
PT1781   PT        0.220514    0.687532    0.396383     0.004505
AU1782   AU        0.218975    0.718699    0.358161     0.007504
AU1783   AU        0.258540    0.685283    0.360731     0.007504
PT1784   PT        0.257109    0.716807    0.395271     0.004505
PT1785   PT        0.292099    0.686236    0.396779     0.004505
AU1786   AU        0.293113    0.717426    0.361854     0.007504
AU1787   AU        0.328329    0.687756    0.360415     0.007504
PT1788   PT        0.327075    0.715813    0.396241     0.004505
AU1789   AU        0.363424    0.686060    0.398214     0.007504
PT1790   PT        0.363493    0.715403    0.360359     0.004505
PT1791   PT        0.395919    0.685459    0.361960     0.004505
AU1792   AU        0.394951    0.716424    0.396376     0.007504
AU1793   AU        0.431472    0.686160    0.396034     0.007504
PT1794   PT        0.430661    0.715837    0.361381     0.004505
AU1795   AU        0.464637    0.684362    0.361082     0.007504
PT1796   PT        0.467686    0.714751    0.395511     0.004505
PT1797   PT        0.501111    0.687002    0.396487     0.004505
PT1798   PT        0.502493    0.715984    0.360321     0.004505
PT1799   PT        0.535776    0.685848    0.363005     0.004505
PT1800   PT        0.539322    0.715521    0.396671     0.004505
AU1801   AU        0.574562    0.686099    0.395305     0.007504
AU1802   AU        0.570938    0.715672    0.360575     0.007504
AU1803   AU        0.607662    0.687161    0.361141     0.007504
PT1804   PT        0.608294    0.716420    0.398465     0.004505
AU1805   AU        0.642019    0.685367    0.395255     0.007504
AU1806   AU        0.642988    0.715622    0.361849     0.007504
PT1807   PT        0.676906    0.686677    0.360819     0.004505
AU1808   AU        0.678508    0.717094    0.395559     0.007504
AU1809   AU        0.715656    0.685109    0.396428     0.007504
PT1810   PT        0.713384    0.714773    0.360514     0.004505
AU1811   AU        0.751353    0.688653    0.360210     0.007504
AU1812   AU        0.753199    0.718359    0.394999     0.007504
PT1813   PT        0.789901    0.688343    0.395636     0.004505
AU1814   AU        0.221283    0.747325    0.397151     0.007504
AU1815   AU        0.255289    0.749640    0.362677     0.007504
AU1816   AU        0.293211    0.750118    0.396077     0.007504
AU1817   AU        0.292516    0.780993    0.361870     0.007504
AU1818   AU        0.327172    0.747399    0.361896     0.007504
PT1819   PT        0.327255    0.778808    0.396972     0.004505
PT1820   PT        0.361711    0.748200    0.396455     0.004505
AU1821   AU        0.362245    0.781828    0.360317     0.007504
AU1822   AU        0.398669    0.748742    0.361106     0.007504
PT1823   PT        0.398455    0.779847    0.396952     0.004505
AU1824   AU        0.432074    0.747152    0.397360     0.007504
AU1825   AU        0.433637    0.781463    0.359603     0.007504
AU1826   AU        0.468027    0.746661    0.363185     0.007504
AU1827   AU        0.467055    0.780033    0.395530     0.007504
PT1828   PT        0.503754    0.747997    0.394864     0.004505
PT1829   PT        0.502260    0.778602    0.360866     0.004505
AU1830   AU        0.537952    0.748021    0.360565     0.007504
AU1831   AU        0.537997    0.778309    0.394875     0.007504
PT1832   PT        0.572051    0.746972    0.395727     0.004505
PT1833   PT        0.573520    0.780819    0.362011     0.004505
PT1834   PT        0.607656    0.746717    0.360362     0.004505
AU1835   AU        0.607227    0.779018    0.395166     0.007504
AU1836   AU        0.643990    0.749408    0.394575     0.007504
PT1837   PT        0.645792    0.780747    0.357144     0.004505
AU1838   AU        0.679941    0.747207    0.358943     0.007504
AU1839   AU        0.712338    0.747311    0.394042     0.007504
AU1840   AU        0.437557    0.811657    0.397928     0.007504
PT1841   PT        0.471524    0.811984    0.359804     0.004505
AU1842   AU        0.506026    0.813417    0.396133     0.007504
AU1843   AU        0.292209    0.096963    0.430592     0.007504
PT1844   PT        0.327313    0.097915    0.464840     0.004505
AU1845   AU        0.363092    0.098991    0.430701     0.007504
AU1846   AU        0.425702    0.000625    0.467492     0.007504
AU1847   AU        0.397899    0.096019    0.463255     0.007504
AU1848   AU        0.431502    0.063562    0.465902     0.007504
AU1849   AU        0.427600    0.097390    0.433959     0.007504
AU1850   AU        0.468196    0.068027    0.431524     0.007504
AU1851   AU        0.465362    0.095648    0.467252     0.007504
AU1852   AU        0.502940    0.065402    0.466959     0.007504
AU1853   AU        0.500961    0.099067    0.434594     0.007504
AU1854   AU        0.541059    0.066197    0.431697     0.007504
PT1855   PT        0.537986    0.100487    0.467948     0.004505
AU1856   AU        0.575208    0.100111    0.430926     0.007504
AU1857   AU        0.609967    0.098129    0.465024     0.007504
AU1858   AU        0.647943    0.098697    0.430838     0.007504
AU1859   AU        0.182113    0.159850    0.464278     0.007504
AU1860   AU        0.218551    0.130525    0.462779     0.007504
PT1861   PT        0.219193    0.163089    0.429240     0.004505
PT1862   PT        0.256108    0.132391    0.429725     0.004505
AU1863   AU        0.254515    0.161855    0.463511     0.007504
AU1864   AU        0.290374    0.131485    0.464826     0.007504
AU1865   AU        0.292672    0.160916    0.430265     0.007504
PT1866   PT        0.327457    0.128482    0.432238     0.004505
PT1867   PT        0.326895    0.161893    0.468136     0.004505
AU1868   AU        0.362889    0.130749    0.465625     0.007504
AU1869   AU        0.360948    0.163299    0.432934     0.007504
AU1870   AU        0.396782    0.132761    0.429688     0.007504
AU1871   AU        0.395640    0.165013    0.466088     0.007504
AU1872   AU        0.429056    0.132668    0.465775     0.007504
AU1873   AU        0.431574    0.162936    0.432871     0.007504
PT1874   PT        0.465000    0.129502    0.430503     0.004505
AU1875   AU        0.468583    0.162681    0.466191     0.007504
AU1876   AU        0.501919    0.131132    0.467456     0.007504
PT1877   PT        0.500120    0.164012    0.430878     0.004505
PT1878   PT        0.536459    0.130391    0.433454     0.004505
PT1879   PT        0.534927    0.163387    0.467155     0.004505
AU1880   AU        0.574097    0.130937    0.465298     0.007504
AU1881   AU        0.570046    0.161560    0.431762     0.007504
AU1882   AU        0.611115    0.130153    0.431360     0.007504
PT1883   PT        0.605668    0.162561    0.464927     0.004505
AU1884   AU        0.646729    0.128904    0.465114     0.007504
AU1885   AU        0.646977    0.160341    0.430250     0.007504
AU1886   AU        0.681613    0.127446    0.430395     0.007504
AU1887   AU        0.679282    0.161010    0.467027     0.007504
PT1888   PT        0.714875    0.126191    0.466942     0.004505
AU1889   AU        0.714223    0.159338    0.431468     0.007504
PT1890   PT        0.750697    0.161208    0.463644     0.004505
PT1891   PT        0.111073    0.223706    0.466342     0.004505
AU1892   AU        0.150540    0.190665    0.465356     0.007504
PT1893   PT        0.147932    0.223786    0.431135     0.004505
AU1894   AU        0.184490    0.191275    0.430105     0.007504
AU1895   AU        0.183720    0.221816    0.463498     0.007504
PT1896   PT        0.218479    0.191332    0.466827     0.004505
PT1897   PT        0.221380    0.225311    0.432667     0.004505
AU1898   AU        0.255296    0.192253    0.431339     0.007504
PT1899   PT        0.255623    0.223152    0.465547     0.004505
AU1900   AU        0.291700    0.191105    0.466174     0.007504
AU1901   AU        0.291580    0.224498    0.430545     0.007504
AU1902   AU        0.326727    0.192743    0.432036     0.007504
AU1903   AU        0.326604    0.225800    0.466667     0.007504
PT1904   PT        0.358565    0.194724    0.466888     0.004505
AU1905   AU        0.361485    0.224809    0.431991     0.007504
PT1906   PT        0.395125    0.193677    0.430317     0.004505
AU1907   AU        0.395591    0.224255    0.466098     0.007504
PT1908   PT        0.432280    0.194093    0.466384     0.004505
PT1909   PT        0.430330    0.224783    0.430440     0.004505
PT1910   PT        0.465850    0.193964    0.432726     0.004505
AU1911   AU        0.464508    0.225272    0.465395     0.007504
PT1912   PT        0.502400    0.194367    0.464761     0.004505
AU1913   AU        0.500228    0.224909    0.430645     0.007504
PT1914   PT        0.537152    0.193853    0.430175     0.004505
AU1915   AU        0.537882    0.223882    0.465029     0.007504
AU1916   AU        0.569788    0.193146    0.467314     0.007504
PT1917   PT        0.572225    0.225276    0.431896     0.004505
PT1918   PT        0.604389    0.193556    0.432856     0.004505
PT1919   PT        0.605939    0.223854    0.467564     0.004505
PT1920   PT        0.641664    0.192189    0.466677     0.004505
AU1921   AU        0.642555    0.221953    0.430938     0.007504
AU1922   AU        0.679148    0.191839    0.430200     0.007504
AU1923   AU        0.679010    0.223797    0.463093     0.007504
AU1924   AU        0.713273    0.190796    0.465869     0.007504
AU1925   AU        0.715871    0.223180    0.433535     0.007504
AU1926   AU        0.751828    0.189368    0.432044     0.007504
PT1927   PT        0.749413    0.221924    0.467613     0.004505
PT1928   PT        0.786110    0.188595    0.467056     0.004505
AU1929   AU        0.787840    0.220233    0.433598     0.007504
PT1930   PT        0.821992    0.217644    0.468402     0.004505
AU1931   AU        0.076952    0.284358    0.430442     0.007504
AU1932   AU        0.111580    0.253594    0.426583     0.007504
AU1933   AU        0.109176    0.283108    0.464743     0.007504
PT1934   PT        0.147697    0.256177    0.465675     0.004505
AU1935   AU        0.150357    0.286063    0.430791     0.007504
AU1936   AU        0.185150    0.254706    0.432450     0.007504
AU1937   AU        0.187789    0.285047    0.465473     0.007504
AU1938   AU        0.222099    0.256112    0.466035     0.007504
AU1939   AU        0.220731    0.285898    0.430766     0.007504
AU1940   AU        0.255530    0.255897    0.431667     0.007504
PT1941   PT        0.256242    0.287562    0.467029     0.004505
PT1942   PT        0.290671    0.255295    0.466987     0.004505
AU1943   AU        0.290251    0.286388    0.430574     0.007504
PT1944   PT        0.325303    0.255426    0.432728     0.004505
AU1945   AU        0.326341    0.285699    0.465610     0.007504
PT1946   PT        0.361178    0.255919    0.466815     0.004505
AU1947   AU        0.359747    0.284429    0.431139     0.007504
PT1948   PT        0.395251    0.255629    0.430786     0.004505
PT1949   PT        0.395610    0.286421    0.465996     0.004505
PT1950   PT        0.430003    0.255057    0.464464     0.004505
PT1951   PT        0.432027    0.287053    0.431523     0.004505
AU1952   AU        0.465370    0.255945    0.430767     0.007504
PT1953   PT        0.465176    0.286008    0.466684     0.004505
PT1954   PT        0.501586    0.254984    0.466112     0.004505
PT1955   PT        0.500088    0.285362    0.432953     0.004505
PT1956   PT        0.535859    0.255298    0.430813     0.004505
PT1957   PT        0.537163    0.286614    0.466224     0.004505
PT1958   PT        0.572215    0.256040    0.466446     0.004505
PT1959   PT        0.570928    0.286493    0.430355     0.004505
PT1960   PT        0.606640    0.254711    0.431091     0.004505
PT1961   PT        0.606274    0.285316    0.466764     0.004505
AU1962   AU        0.642698    0.252987    0.464646     0.007504
PT1963   PT        0.639915    0.286135    0.430809     0.004505
AU1964   AU        0.676503    0.255207    0.429869     0.007504
PT1965   PT        0.675262    0.286139    0.464247     0.004505
PT1966   PT        0.710628    0.254782    0.465678     0.004505
AU1967   AU        0.713205    0.286930    0.428770     0.007504
AU1968   AU        0.753199    0.254147    0.434559     0.007504
AU1969   AU        0.746687    0.286871    0.466216     0.007504
AU1970   AU        0.788475    0.253565    0.469716     0.007504
PT1971   PT        0.785948    0.285416    0.432631     0.004505
PT1972   PT        0.821533    0.253308    0.434244     0.004505
AU1973   AU        0.823816    0.285747    0.467450     0.007504
PT1974   PT        0.858325    0.282648    0.434142     0.004505
AU1975   AU        0.074310    0.314911    0.464344     0.007504
PT1976   PT        0.078038    0.346971    0.431856     0.004505
PT1977   PT        0.111992    0.314653    0.430615     0.004505
PT1978   PT        0.112943    0.344024    0.466592     0.004505
AU1979   AU        0.151992    0.315811    0.465364     0.007504
PT1980   PT        0.149827    0.346903    0.431820     0.004505
PT1981   PT        0.185259    0.318434    0.430438     0.004505
PT1982   PT        0.186103    0.347022    0.467274     0.004505
PT1983   PT        0.220700    0.317668    0.466272     0.004505
PT1984   PT        0.221686    0.347637    0.431136     0.004505
PT1985   PT        0.255002    0.316331    0.431094     0.004505
PT1986   PT        0.255504    0.347974    0.465862     0.004505
PT1987   PT        0.290355    0.317199    0.466905     0.004505
PT1988   PT        0.290105    0.346871    0.430170     0.004505
PT1989   PT        0.325032    0.316264    0.431695     0.004505
PT1990   PT        0.325795    0.347355    0.468187     0.004505
AU1991   AU        0.361131    0.317084    0.465912     0.007504
AU1992   AU        0.361375    0.346930    0.430599     0.007504
PT1993   PT        0.394963    0.315829    0.433269     0.004505
AU1994   AU        0.397156    0.346475    0.466575     0.007504
PT1995   PT        0.432225    0.316407    0.466988     0.004505
AU1996   AU        0.431291    0.348091    0.432080     0.007504
PT1997   PT        0.464973    0.318487    0.430542     0.004505
PT1998   PT        0.467129    0.347613    0.466942     0.004505
AU1999   AU        0.500752    0.315748    0.466155     0.007504
AU2000   AU        0.501830    0.348260    0.430882     0.007504
PT2001   PT        0.536403    0.316908    0.430838     0.004505
AU2002   AU        0.535312    0.347416    0.464939     0.007504
AU2003   AU        0.570875    0.315828    0.465674     0.007504
PT2004   PT        0.571124    0.347695    0.432491     0.004505
PT2005   PT        0.606521    0.316456    0.431678     0.004505
AU2006   AU        0.606136    0.346804    0.466759     0.007504
PT2007   PT        0.641308    0.319055    0.464531     0.004505
PT2008   PT        0.641449    0.346189    0.428947     0.004505
AU2009   AU        0.675798    0.314713    0.429509     0.007504
PT2010   PT        0.674278    0.348713    0.465086     0.004505
PT2011   PT        0.709065    0.316977    0.465664     0.004505
PT2012   PT        0.709908    0.347701    0.431345     0.004505
PT2013   PT        0.745785    0.317939    0.431311     0.004505
AU2014   AU        0.748371    0.348510    0.467301     0.007504
PT2015   PT        0.786763    0.315863    0.465522     0.004505
PT2016   PT        0.787798    0.345019    0.430094     0.004505
AU2017   AU        0.825737    0.319007    0.430883     0.007504
AU2018   AU        0.823267    0.348164    0.468369     0.007504
PT2019   PT        0.861305    0.318305    0.466308     0.004505
PT2020   PT        0.859849    0.349574    0.431082     0.004505
AU2021   AU        0.041735    0.343583    0.396639     0.007504
PT2022   PT        0.038501    0.403511    0.458728     0.004505
PT2023   PT        0.076041    0.377110    0.468232     0.004505
AU2024   AU        0.077622    0.408335    0.428522     0.007504
AU2025   AU        0.114930    0.375674    0.432599     0.007504
AU2026   AU        0.114295    0.408315    0.465157     0.007504
PT2027   PT        0.151298    0.378747    0.465939     0.004505
PT2028   PT        0.152156    0.408192    0.431599     0.004505
AU2029   AU        0.185967    0.377539    0.430823     0.007504
AU2030   AU        0.187143    0.409987    0.468617     0.007504
AU2031   AU        0.220706    0.378892    0.467700     0.007504
PT2032   PT        0.219160    0.408208    0.432021     0.004505
PT2033   PT        0.255821    0.379718    0.431992     0.004505
AU2034   AU        0.255231    0.408461    0.466326     0.007504
AU2035   AU        0.290551    0.377923    0.465599     0.007504
PT2036   PT        0.290845    0.407491    0.430441     0.004505
PT2037   PT        0.326035    0.376805    0.431602     0.004505
PT2038   PT        0.326172    0.409764    0.466128     0.004505
PT2039   PT        0.361108    0.377839    0.465120     0.004505
PT2040   PT        0.361501    0.409496    0.430283     0.004505
PT2041   PT        0.396631    0.377956    0.428890     0.004505
PT2042   PT        0.397044    0.407615    0.466778     0.004505
AU2043   AU        0.430952    0.379063    0.468095     0.007504
AU2044   AU        0.429889    0.408776    0.432445     0.007504
PT2045   PT        0.464538    0.378258    0.432414     0.004505
AU2046   AU        0.465271    0.407626    0.466873     0.007504
PT2047   PT        0.501569    0.377330    0.465444     0.004505
AU2048   AU        0.501866    0.407965    0.432161     0.007504
PT2049   PT        0.535635    0.378568    0.431754     0.004505
AU2050   AU        0.538047    0.408508    0.466616     0.007504
AU2051   AU        0.571459    0.377766    0.466771     0.007504
PT2052   PT        0.570299    0.409907    0.431314     0.004505
AU2053   AU        0.607008    0.377891    0.433421     0.007504
PT2054   PT        0.605376    0.409078    0.468397     0.004505
PT2055   PT        0.642401    0.379615    0.464393     0.004505
PT2056   PT        0.641622    0.409493    0.430825     0.004505
AU2057   AU        0.676259    0.378843    0.430398     0.007504
AU2058   AU        0.677713    0.409349    0.467795     0.007504
PT2059   PT        0.712404    0.378304    0.466202     0.004505
PT2060   PT        0.711207    0.407568    0.431450     0.004505
PT2061   PT        0.746830    0.377614    0.431331     0.004505
PT2062   PT        0.748338    0.407337    0.468180     0.004505
AU2063   AU        0.784976    0.376191    0.466867     0.007504
AU2064   AU        0.782411    0.409785    0.431529     0.007504
PT2065   PT        0.820111    0.378720    0.430173     0.004505
PT2066   PT        0.819900    0.412078    0.466285     0.004505
PT2067   PT        0.857306    0.379673    0.466624     0.004505
PT2068   PT        0.859432    0.409322    0.430315     0.004505
AU2069   AU        0.895738    0.378650    0.431589     0.007504
PT2070   PT        0.892918    0.409927    0.466199     0.004505
PT2071   PT        0.044875    0.439454    0.428727     0.004505
PT2072   PT        0.041422    0.471158    0.462214     0.004505
PT2073   PT        0.078318    0.440749    0.467934     0.004505
AU2074   AU        0.076467    0.471805    0.430294     0.007504
AU2075   AU        0.112699    0.438788    0.431625     0.007504
AU2076   AU        0.115237    0.470646    0.465195     0.007504
AU2077   AU        0.150400    0.440465    0.466043     0.007504
AU2078   AU        0.149838    0.471736    0.431828     0.007504
AU2079   AU        0.186608    0.441066    0.431530     0.007504
PT2080   PT        0.188074    0.471950    0.467461     0.004505
AU2081   AU        0.221097    0.439461    0.468201     0.007504
AU2082   AU        0.221928    0.471039    0.431164     0.007504
PT2083   PT        0.255119    0.440950    0.431701     0.004505
PT2084   PT        0.257311    0.470791    0.465667     0.004505
PT2085   PT        0.290618    0.439308    0.466855     0.004505
PT2086   PT        0.289661    0.469573    0.431539     0.004505
PT2087   PT        0.326148    0.439682    0.433121     0.004505
PT2088   PT        0.324945    0.470498    0.466283     0.004505
PT2089   PT        0.361891    0.440235    0.466095     0.004505
PT2090   PT        0.361529    0.471435    0.431751     0.004505
PT2091   PT        0.396026    0.440872    0.431458     0.004505
PT2092   PT        0.398172    0.470303    0.465987     0.004505
PT2093   PT        0.431482    0.438699    0.466971     0.004505
PT2094   PT        0.432347    0.470834    0.432521     0.004505
PT2095   PT        0.465994    0.440519    0.432542     0.004505
PT2096   PT        0.466470    0.471122    0.468376     0.004505
AU2097   AU        0.501656    0.438490    0.466719     0.007504
AU2098   AU        0.500188    0.471018    0.432817     0.007504
AU2099   AU        0.535490    0.440331    0.431956     0.007504
PT2100   PT        0.536617    0.469547    0.466622     0.004505
AU2101   AU        0.571011    0.440046    0.465531     0.007504
PT2102   PT        0.571075    0.470568    0.430361     0.004505
PT2103   PT        0.605672    0.440101    0.430788     0.004505
PT2104   PT        0.606803    0.469624    0.465848     0.004505
AU2105   AU        0.640511    0.437499    0.468423     0.007504
PT2106   PT        0.640901    0.470758    0.431688     0.004505
PT2107   PT        0.675197    0.438732    0.432672     0.004505
PT2108   PT        0.674626    0.469404    0.464927     0.004505
PT2109   PT        0.712763    0.440191    0.467464     0.004505
PT2110   PT        0.710842    0.469656    0.431364     0.004505
PT2111   PT        0.747214    0.439372    0.430761     0.004505
AU2112   AU        0.748481    0.469991    0.466119     0.007504
AU2113   AU        0.783160    0.440296    0.464949     0.007504
AU2114   AU        0.785837    0.471469    0.433225     0.007504
PT2115   PT        0.824550    0.439895    0.431566     0.004505
AU2116   AU        0.819503    0.471332    0.466493     0.007504
PT2117   PT        0.858905    0.440374    0.464704     0.004505
AU2118   AU        0.859430    0.470137    0.430008     0.007504
AU2119   AU        0.897950    0.439997    0.429771     0.007504
AU2120   AU        0.898250    0.471322    0.470965     0.007504
PT2121   PT        0.000714    0.497795    0.465148     0.004505
AU2122   AU        0.077763    0.502948    0.468446     0.007504
PT2123   PT        0.076681    0.530382    0.430363     0.004505
AU2124   AU        0.113745    0.501090    0.430118     0.007504
PT2125   PT        0.116214    0.531219    0.466827     0.004505
AU2126   AU        0.151052    0.502079    0.466360     0.007504
PT2127   PT        0.150508    0.532806    0.430478     0.004505
AU2128   AU        0.186641    0.501372    0.432276     0.007504
PT2129   PT        0.186823    0.532534    0.464995     0.004505
AU2130   AU        0.222260    0.500727    0.467320     0.007504
PT2131   PT        0.221565    0.533477    0.431183     0.004505
PT2132   PT        0.255982    0.502498    0.430296     0.004505
PT2133   PT        0.256009    0.532324    0.465909     0.004505
PT2134   PT        0.291493    0.501325    0.466239     0.004505
PT2135   PT        0.292417    0.532061    0.433039     0.004505
PT2136   PT        0.326488    0.500933    0.432376     0.004505
PT2137   PT        0.327750    0.531307    0.467496     0.004505
PT2138   PT        0.360365    0.500704    0.466483     0.004505
PT2139   PT        0.361092    0.531953    0.431442     0.004505
PT2140   PT        0.395991    0.501264    0.431507     0.004505
PT2141   PT        0.395870    0.532992    0.466137     0.004505
PT2142   PT        0.432212    0.501195    0.466527     0.004505
PT2143   PT        0.430956    0.531376    0.429756     0.004505
PT2144   PT        0.465502    0.501213    0.432036     0.004505
PT2145   PT        0.465806    0.532415    0.466600     0.004505
AU2146   AU        0.501679    0.502529    0.468440     0.007504
PT2147   PT        0.502484    0.533000    0.430134     0.004505
AU2148   AU        0.535817    0.501944    0.431492     0.007504
PT2149   PT        0.536666    0.533279    0.467373     0.004505
PT2150   PT        0.573006    0.500298    0.465177     0.004505
PT2151   PT        0.571533    0.532624    0.433856     0.004505
AU2152   AU        0.605533    0.502585    0.431023     0.007504
PT2153   PT        0.606265    0.531862    0.467391     0.004505
PT2154   PT        0.641217    0.500716    0.467498     0.004505
PT2155   PT        0.641381    0.533866    0.431376     0.004505
PT2156   PT        0.676446    0.500759    0.429943     0.004505
AU2157   AU        0.675637    0.531819    0.465817     0.007504
PT2158   PT        0.711323    0.500934    0.468385     0.004505
PT2159   PT        0.710748    0.532037    0.432870     0.004505
AU2160   AU        0.746355    0.500433    0.431338     0.007504
PT2161   PT        0.747984    0.533161    0.464655     0.004505
PT2162   PT        0.782892    0.500700    0.468609     0.004505
AU2163   AU        0.784682    0.530845    0.431929     0.007504
AU2164   AU        0.824931    0.502992    0.429645     0.007504
PT2165   PT        0.822327    0.532300    0.469255     0.004505
PT2166   PT        0.858616    0.500397    0.466332     0.004505
PT2167   PT        0.861035    0.530244    0.432145     0.004505
AU2168   AU        0.895700    0.500209    0.433094     0.007504
AU2169   AU        0.075909    0.562855    0.469665     0.007504
PT2170   PT        0.073858    0.590750    0.432873     0.004505
AU2171   AU        0.112118    0.561662    0.432492     0.007504
AU2172   AU        0.116323    0.592396    0.467775     0.007504
PT2173   PT        0.152150    0.562113    0.466617     0.004505
PT2174   PT        0.151835    0.594024    0.431928     0.004505
PT2175   PT        0.187294    0.562824    0.430209     0.004505
AU2176   AU        0.187044    0.593016    0.467384     0.007504
PT2177   PT        0.221844    0.563289    0.466490     0.004505
AU2178   AU        0.222565    0.593642    0.432432     0.007504
PT2179   PT        0.256021    0.563770    0.431206     0.004505
PT2180   PT        0.256174    0.591925    0.465980     0.004505
PT2181   PT        0.291719    0.563136    0.466400     0.004505
PT2182   PT        0.290024    0.592895    0.431784     0.004505
PT2183   PT        0.328051    0.563095    0.432708     0.004505
AU2184   AU        0.326411    0.592887    0.466163     0.007504
PT2185   PT        0.360773    0.563719    0.466641     0.004505
PT2186   PT        0.362864    0.594334    0.430818     0.004505
AU2187   AU        0.396433    0.563739    0.431959     0.007504
PT2188   PT        0.396949    0.593570    0.466165     0.004505
AU2189   AU        0.430344    0.561616    0.466274     0.007504
AU2190   AU        0.431149    0.593568    0.430631     0.007504
PT2191   PT        0.465839    0.563074    0.430225     0.004505
PT2192   PT        0.466877    0.593786    0.465578     0.004505
PT2193   PT        0.502321    0.563756    0.466807     0.004505
PT2194   PT        0.501240    0.593201    0.431401     0.004505
PT2195   PT        0.535708    0.563770    0.432124     0.004505
PT2196   PT        0.537748    0.594299    0.466401     0.004505
AU2197   AU        0.570611    0.563975    0.467411     0.007504
AU2198   AU        0.571461    0.594088    0.432417     0.007504
AU2199   AU        0.606408    0.563763    0.432104     0.007504
AU2200   AU        0.607221    0.593652    0.466335     0.007504
PT2201   PT        0.642293    0.562951    0.465038     0.004505
PT2202   PT        0.642717    0.593890    0.430261     0.004505
PT2203   PT        0.676026    0.562645    0.431697     0.004505
PT2204   PT        0.677623    0.592549    0.466218     0.004505
PT2205   PT        0.713389    0.562372    0.466271     0.004505
PT2206   PT        0.710206    0.593724    0.430963     0.004505
PT2207   PT        0.749132    0.563811    0.431705     0.004505
AU2208   AU        0.749136    0.594415    0.465580     0.007504
PT2209   PT        0.787537    0.562162    0.467749     0.004505
PT2210   PT        0.789180    0.594279    0.432890     0.004505
PT2211   PT        0.822777    0.561996    0.431349     0.004505
PT2212   PT        0.825864    0.594499    0.464849     0.004505
AU2213   AU        0.857593    0.561738    0.468689     0.007504
PT2214   PT        0.863634    0.591011    0.432371     0.004505
AU2215   AU        0.113923    0.625080    0.434331     0.007504
AU2216   AU        0.107454    0.677751    0.488046     0.007504
PT2217   PT        0.151892    0.624428    0.466942     0.004505
AU2218   AU        0.147875    0.658335    0.431249     0.007504
AU2219   AU        0.187667    0.625651    0.432534     0.007504
PT2220   PT        0.184979    0.657640    0.468864     0.004505
PT2221   PT        0.221214    0.622487    0.467455     0.004505
PT2222   PT        0.219138    0.654874    0.433028     0.004505
PT2223   PT        0.257103    0.624191    0.433321     0.004505
PT2224   PT        0.256569    0.654807    0.466214     0.004505
AU2225   AU        0.291384    0.623916    0.467369     0.007504
PT2226   PT        0.291424    0.655633    0.431785     0.004505
PT2227   PT        0.327776    0.623197    0.432271     0.004505
AU2228   AU        0.328367    0.655158    0.466667     0.007504
PT2229   PT        0.362805    0.624050    0.466417     0.004505
AU2230   AU        0.361917    0.655020    0.430768     0.007504
AU2231   AU        0.396394    0.625312    0.431936     0.007504
PT2232   PT        0.397846    0.653607    0.467432     0.004505
PT2233   PT        0.433323    0.624319    0.468061     0.004505
PT2234   PT        0.433042    0.654738    0.431777     0.004505
PT2235   PT        0.467338    0.624436    0.431787     0.004505
AU2236   AU        0.466526    0.656106    0.468017     0.007504
PT2237   PT        0.502692    0.623561    0.466799     0.004505
PT2238   PT        0.501061    0.654539    0.432002     0.004505
PT2239   PT        0.536750    0.625345    0.430640     0.004505
PT2240   PT        0.538332    0.654772    0.467103     0.004505
PT2241   PT        0.572276    0.624788    0.468029     0.004505
AU2242   AU        0.573400    0.653542    0.430510     0.007504
PT2243   PT        0.607953    0.622808    0.432579     0.004505
PT2244   PT        0.608034    0.655397    0.465795     0.004505
AU2245   AU        0.643485    0.624448    0.466607     0.007504
PT2246   PT        0.642546    0.655133    0.429944     0.004505
PT2247   PT        0.676206    0.623909    0.430588     0.004505
PT2248   PT        0.679117    0.654310    0.465848     0.004505
PT2249   PT        0.711894    0.622321    0.466826     0.004505
AU2250   AU        0.713077    0.655783    0.430812     0.007504
AU2251   AU        0.747749    0.624745    0.429918     0.007504
AU2252   AU        0.753554    0.657229    0.466555     0.007504
PT2253   PT        0.786178    0.624619    0.466612     0.004505
AU2254   AU        0.789159    0.657977    0.427431     0.007504
PT2255   PT        0.823628    0.625260    0.431589     0.004505
AU2256   AU        0.821228    0.658526    0.464743     0.007504
AU2257   AU        0.150583    0.691751    0.468336     0.007504
AU2258   AU        0.183100    0.688283    0.429670     0.007504
PT2259   PT        0.140256    0.748187    0.459694     0.004505
PT2260   PT        0.220194    0.686548    0.466159     0.004505
PT2261   PT        0.220056    0.718319    0.432041     0.004505
PT2262   PT        0.256189    0.686208    0.430590     0.004505
AU2263   AU        0.254665    0.719608    0.466484     0.007504
PT2264   PT        0.292613    0.686273    0.465835     0.004505
PT2265   PT        0.291841    0.716326    0.432426     0.004505
PT2266   PT        0.328639    0.686094    0.431345     0.004505
AU2267   AU        0.326587    0.716388    0.466722     0.007504
PT2268   PT        0.362416    0.685156    0.467347     0.004505
AU2269   AU        0.361815    0.717136    0.432688     0.007504
AU2270   AU        0.397235    0.683735    0.431744     0.007504
AU2271   AU        0.396606    0.717589    0.466582     0.007504
PT2272   PT        0.432699    0.684997    0.467464     0.004505
AU2273   AU        0.433017    0.716313    0.430656     0.007504
PT2274   PT        0.467896    0.685494    0.431607     0.004505
PT2275   PT        0.468296    0.715414    0.466570     0.004505
AU2276   AU        0.502102    0.685502    0.466383     0.007504
PT2277   PT        0.502038    0.714811    0.429313     0.004505
PT2278   PT        0.537893    0.684794    0.430042     0.004505
AU2279   AU        0.535727    0.715847    0.464285     0.007504
PT2280   PT        0.571806    0.685434    0.464139     0.004505
AU2281   AU        0.573332    0.717124    0.432579     0.007504
PT2282   PT        0.606138    0.685420    0.429622     0.004505
PT2283   PT        0.609964    0.716451    0.465226     0.004505
AU2284   AU        0.643838    0.685305    0.466722     0.007504
PT2285   PT        0.644375    0.717551    0.428940     0.004505
PT2286   PT        0.676922    0.685712    0.430683     0.004505
PT2287   PT        0.679862    0.715905    0.467029     0.004505
PT2288   PT        0.715019    0.686627    0.467005     0.004505
AU2289   AU        0.714167    0.714438    0.430341     0.007504
AU2290   AU        0.752384    0.686557    0.430955     0.007504
AU2291   AU        0.751525    0.720522    0.465670     0.007504
PT2292   PT        0.786234    0.687937    0.462897     0.004505
AU2293   AU        0.219750    0.752867    0.465701     0.007504
AU2294   AU        0.258108    0.748922    0.432703     0.007504
AU2295   AU        0.292467    0.751324    0.467253     0.007504
AU2296   AU        0.292507    0.782552    0.431546     0.007504
AU2297   AU        0.326093    0.747461    0.431055     0.007504
AU2298   AU        0.325130    0.781703    0.465855     0.007504
AU2299   AU        0.359842    0.748359    0.467656     0.007504
AU2300   AU        0.362643    0.778733    0.431424     0.007504
AU2301   AU        0.396575    0.748720    0.430519     0.007504
AU2302   AU        0.397573    0.779739    0.465972     0.007504
PT2303   PT        0.431466    0.747970    0.465562     0.004505
PT2304   PT        0.432728    0.780624    0.432850     0.004505
AU2305   AU        0.468482    0.746427    0.429324     0.007504
AU2306   AU        0.469876    0.781290    0.467145     0.007504
PT2307   PT        0.501680    0.745920    0.464685     0.004505
PT2308   PT        0.505023    0.781483    0.430199     0.004505
AU2309   AU        0.537509    0.746540    0.429727     0.007504
AU2310   AU        0.539153    0.779631    0.467275     0.007504
AU2311   AU        0.572510    0.748836    0.465258     0.007504
AU2312   AU        0.572095    0.776970    0.430341     0.007504
PT2313   PT        0.609382    0.748300    0.432278     0.004505
PT2314   PT        0.608960    0.782087    0.461948     0.004505
PT2315   PT        0.643820    0.751347    0.464732     0.004505
AU2316   AU        0.643045    0.781452    0.428103     0.007504
PT2317   PT        0.679194    0.746822    0.430852     0.004505
AU2318   AU        0.712733    0.746105    0.466275     0.007504
PT2319   PT        0.401678    0.811694    0.430914     0.004505
PT2320   PT        0.434732    0.813603    0.466689     0.004505
PT2321   PT        0.464192    0.877799    0.437900     0.004505
PT2322   PT        0.506615    0.811836    0.467013     0.004505
AU2323   AU        0.540871    0.811900    0.431453     0.007504
PT2324   PT        0.291558    0.096843    0.500088     0.004505
AU2325   AU        0.324146    0.096926    0.535472     0.007504
PT2326   PT        0.362496    0.098227    0.498456     0.004505
PT2327   PT        0.395414    0.100996    0.537364     0.004505
AU2328   AU        0.429742    0.098139    0.500179     0.007504
AU2329   AU        0.467630    0.067586    0.501868     0.007504
AU2330   AU        0.464050    0.097195    0.538485     0.007504
AU2331   AU        0.500650    0.098860    0.502137     0.007504
PT2332   PT        0.539034    0.098253    0.536486     0.004505
PT2333   PT        0.576316    0.097329    0.501888     0.004505
PT2334   PT        0.609351    0.099171    0.536906     0.004505
PT2335   PT        0.644771    0.097572    0.499315     0.004505
PT2336   PT        0.180294    0.126943    0.500946     0.004505
PT2337   PT        0.221753    0.127258    0.535078     0.004505
PT2338   PT        0.256691    0.158798    0.538889     0.004505
PT2339   PT        0.291093    0.128401    0.535819     0.004505
AU2340   AU        0.288328    0.162025    0.502826     0.007504
PT2341   PT        0.325336    0.129311    0.499953     0.004505
AU2342   AU        0.326092    0.164491    0.536832     0.007504
PT2343   PT        0.359191    0.131483    0.536741     0.004505
AU2344   AU        0.359339    0.161632    0.502937     0.007504
PT2345   PT        0.396607    0.132041    0.501506     0.004505
PT2346   PT        0.397732    0.162826    0.537749     0.004505
PT2347   PT        0.432015    0.129703    0.538056     0.004505
AU2348   AU        0.431534    0.162960    0.500397     0.007504
AU2349   AU        0.465381    0.128555    0.501042     0.007504
AU2350   AU        0.466384    0.159647    0.536727     0.007504
AU2351   AU        0.500349    0.129553    0.537510     0.007504
AU2352   AU        0.501570    0.159620    0.504000     0.007504
AU2353   AU        0.536929    0.131330    0.503044     0.007504
AU2354   AU        0.540492    0.162184    0.536514     0.007504
PT2355   PT        0.573670    0.131837    0.535199     0.004505
AU2356   AU        0.570442    0.162783    0.499602     0.007504
PT2357   PT        0.610196    0.129003    0.498274     0.004505
AU2358   AU        0.606804    0.160605    0.534488     0.007504
AU2359   AU        0.643242    0.130622    0.537303     0.007504
AU2360   AU        0.642729    0.162009    0.501466     0.007504
AU2361   AU        0.679181    0.131290    0.502529     0.007504
AU2362   AU        0.677657    0.162594    0.538368     0.007504
PT2363   PT        0.715281    0.159159    0.501925     0.004505
AU2364   AU        0.149082    0.224472    0.499058     0.007504
PT2365   PT        0.183886    0.190894    0.502779     0.004505
PT2366   PT        0.183197    0.223233    0.535695     0.004505
PT2367   PT        0.221003    0.191300    0.536358     0.004505
PT2368   PT        0.221962    0.223634    0.500931     0.004505
AU2369   AU        0.255765    0.192766    0.500930     0.007504
PT2370   PT        0.256944    0.224550    0.536147     0.004505
PT2371   PT        0.291210    0.193156    0.537059     0.004505
PT2372   PT        0.290837    0.226010    0.501686     0.004505
PT2373   PT        0.325685    0.194802    0.499402     0.004505
AU2374   AU        0.327544    0.224277    0.537096     0.007504
PT2375   PT        0.362085    0.194569    0.536195     0.004505
AU2376   AU        0.361190    0.223472    0.501342     0.007504
PT2377   PT        0.395251    0.194191    0.502402     0.004505
PT2378   PT        0.396930    0.226175    0.537091     0.004505
PT2379   PT        0.432349    0.193917    0.534754     0.004505
PT2380   PT        0.430898    0.225527    0.502080     0.004505
AU2381   AU        0.466438    0.192709    0.500385     0.007504
PT2382   PT        0.465434    0.223098    0.536021     0.004505
AU2383   AU        0.498146    0.194180    0.536263     0.007504
AU2384   AU        0.501213    0.222644    0.500335     0.007504
AU2385   AU        0.534207    0.192087    0.502354     0.007504
PT2386   PT        0.535346    0.224465    0.537708     0.004505
PT2387   PT        0.572134    0.193975    0.535806     0.004505
AU2388   AU        0.569292    0.223945    0.502458     0.007504
AU2389   AU        0.607412    0.193655    0.501467     0.007504
AU2390   AU        0.606434    0.223796    0.539509     0.007504
PT2391   PT        0.643724    0.193510    0.535630     0.004505
PT2392   PT        0.644243    0.224238    0.501666     0.004505
PT2393   PT        0.679774    0.191988    0.500392     0.004505
PT2394   PT        0.677927    0.225285    0.535036     0.004505
AU2395   AU        0.714721    0.191164    0.535271     0.007504
AU2396   AU        0.712997    0.225054    0.501204     0.007504
AU2397   AU        0.749953    0.189145    0.499608     0.007504
AU2398   AU        0.747397    0.221736    0.535836     0.007504
PT2399   PT        0.784625    0.220608    0.502437     0.004505
AU2400   AU        0.073688    0.285416    0.501460     0.007504
AU2401   AU        0.113455    0.253876    0.503261     0.007504
PT2402   PT        0.111550    0.287986    0.538109     0.004505
AU2403   AU        0.152689    0.255096    0.536547     0.007504
AU2404   AU        0.149902    0.285966    0.500044     0.007504
AU2405   AU        0.186099    0.254122    0.499891     0.007504
PT2406   PT        0.187464    0.285642    0.536992     0.004505
AU2407   AU        0.221341    0.254715    0.536209     0.007504
PT2408   PT        0.222397    0.287039    0.502809     0.004505
AU2409   AU        0.256792    0.256779    0.500457     0.007504
PT2410   PT        0.257519    0.285011    0.536564     0.004505
PT2411   PT        0.292342    0.255548    0.536074     0.004505
AU2412   AU        0.292266    0.287869    0.501080     0.007504
PT2413   PT        0.327059    0.255608    0.501135     0.004505
PT2414   PT        0.326510    0.286859    0.536502     0.004505
PT2415   PT        0.361763    0.256439    0.538788     0.004505
PT2416   PT        0.361813    0.286481    0.501769     0.004505
PT2417   PT        0.395972    0.256223    0.501484     0.004505
PT2418   PT        0.397026    0.286542    0.535359     0.004505
PT2419   PT        0.431800    0.255720    0.536070     0.004505
PT2420   PT        0.431730    0.284741    0.501899     0.004505
AU2421   AU        0.466643    0.253390    0.500499     0.007504
PT2422   PT        0.465694    0.285336    0.537177     0.004505
AU2423   AU        0.500190    0.252843    0.537628     0.007504
AU2424   AU        0.500259    0.284204    0.501379     0.007504
AU2425   AU        0.537043    0.255228    0.500425     0.007504
AU2426   AU        0.535818    0.284532    0.535680     0.007504
AU2427   AU        0.571212    0.253811    0.535783     0.007504
AU2428   AU        0.572083    0.285592    0.501751     0.007504
PT2429   PT        0.607627    0.252375    0.500447     0.004505
PT2430   PT        0.606730    0.284482    0.535727     0.004505
AU2431   AU        0.641526    0.253489    0.537784     0.007504
PT2432   PT        0.641581    0.285617    0.500709     0.004505
PT2433   PT        0.676533    0.254292    0.498927     0.004505
AU2434   AU        0.677394    0.283194    0.535133     0.007504
AU2435   AU        0.714526    0.255422    0.535588     0.007504
AU2436   AU        0.711630    0.284871    0.500130     0.007504
PT2437   PT        0.748590    0.255901    0.500499     0.004505
PT2438   PT        0.753958    0.284287    0.536002     0.004505
AU2439   AU        0.785708    0.251066    0.537630     0.007504
AU2440   AU        0.788159    0.287842    0.500935     0.007504
AU2441   AU        0.824989    0.252029    0.504057     0.007504
AU2442   AU        0.823201    0.284224    0.534934     0.007504
AU2443   AU        0.862203    0.284906    0.500674     0.007504
AU2444   AU        0.076296    0.316882    0.536398     0.007504
PT2445   PT        0.078864    0.347407    0.503694     0.004505
PT2446   PT        0.112654    0.313439    0.500479     0.004505
PT2447   PT        0.114729    0.345201    0.537338     0.004505
AU2448   AU        0.149417    0.316436    0.536414     0.007504
AU2449   AU        0.149300    0.345728    0.500330     0.007504
AU2450   AU        0.185955    0.314665    0.501793     0.007504
AU2451   AU        0.185829    0.345500    0.535650     0.007504
PT2452   PT        0.221219    0.317926    0.535258     0.004505
PT2453   PT        0.221931    0.346617    0.501382     0.004505
AU2454   AU        0.257270    0.317662    0.502791     0.007504
PT2455   PT        0.256693    0.347487    0.537507     0.004505
PT2456   PT        0.291320    0.317209    0.536488     0.004505
PT2457   PT        0.291860    0.348095    0.501720     0.004505
PT2458   PT        0.327078    0.317071    0.502099     0.004505
AU2459   AU        0.325644    0.347383    0.536364     0.007504
PT2460   PT        0.361865    0.316789    0.535769     0.004505
PT2461   PT        0.361057    0.347619    0.501390     0.004505
AU2462   AU        0.395951    0.316672    0.501585     0.007504
AU2463   AU        0.396617    0.345288    0.535398     0.007504
PT2464   PT        0.432690    0.316108    0.537767     0.004505
AU2465   AU        0.432022    0.348017    0.500476     0.007504
PT2466   PT        0.465625    0.316350    0.501211     0.004505
PT2467   PT        0.466588    0.347693    0.536474     0.004505
AU2468   AU        0.501764    0.316856    0.537376     0.007504
PT2469   PT        0.500812    0.347376    0.503011     0.004505
PT2470   PT        0.536317    0.315310    0.502160     0.004505
PT2471   PT        0.535917    0.346626    0.536885     0.004505
PT2472   PT        0.572700    0.315639    0.535374     0.004505
PT2473   PT        0.571877    0.347650    0.501204     0.004505
PT2474   PT        0.606404    0.316596    0.499947     0.004505
AU2475   AU        0.606801    0.348134    0.536262     0.007504
PT2476   PT        0.639329    0.315208    0.535683     0.004505
PT2477   PT        0.639384    0.347861    0.502422     0.004505
PT2478   PT        0.676196    0.317986    0.500630     0.004505
AU2479   AU        0.675731    0.346996    0.534842     0.007504
PT2480   PT        0.713469    0.314437    0.534224     0.004505
PT2481   PT        0.712036    0.347450    0.499287     0.004505
AU2482   AU        0.750118    0.315860    0.503222     0.007504
PT2483   PT        0.745842    0.348047    0.535434     0.004505
AU2484   AU        0.787994    0.315263    0.538047     0.007504
AU2485   AU        0.784915    0.344413    0.501978     0.007504
AU2486   AU        0.824328    0.314555    0.501081     0.007504
PT2487   PT        0.822231    0.349065    0.535796     0.004505
PT2488   PT        0.857061    0.314790    0.535961     0.004505
AU2489   AU        0.859801    0.348668    0.503971     0.007504
AU2490   AU        0.079104    0.379314    0.535833     0.007504
PT2491   PT        0.041782    0.409914    0.542200     0.004505
AU2492   AU        0.116651    0.376608    0.503084     0.007504
PT2493   PT        0.115073    0.406385    0.536154     0.004505
AU2494   AU        0.151151    0.376803    0.536288     0.007504
AU2495   AU        0.152408    0.408884    0.501845     0.007504
PT2496   PT        0.186964    0.376123    0.501250     0.004505
PT2497   PT        0.187169    0.408422    0.536421     0.004505
PT2498   PT        0.220820    0.378747    0.536913     0.004505
AU2499   AU        0.221974    0.408847    0.501552     0.007504
PT2500   PT        0.255718    0.377304    0.502026     0.004505
PT2501   PT        0.255324    0.409527    0.537429     0.004505
AU2502   AU        0.292336    0.379116    0.536630     0.007504
PT2503   PT        0.290873    0.409901    0.500785     0.004505
PT2504   PT        0.326945    0.378857    0.500520     0.004505
PT2505   PT        0.327113    0.409934    0.537547     0.004505
PT2506   PT        0.361391    0.378942    0.537732     0.004505
PT2507   PT        0.360687    0.410236    0.500121     0.004505
PT2508   PT        0.396616    0.379050    0.503387     0.004505
PT2509   PT        0.395277    0.410418    0.537462     0.004505
PT2510   PT        0.432128    0.379565    0.537018     0.004505
PT2511   PT        0.430732    0.408789    0.502699     0.004505
AU2512   AU        0.467192    0.378887    0.502622     0.007504
PT2513   PT        0.466699    0.409518    0.536061     0.004505
PT2514   PT        0.501562    0.377060    0.537844     0.004505
PT2515   PT        0.503435    0.408288    0.502055     0.004505
PT2516   PT        0.534920    0.377225    0.502947     0.004505
PT2517   PT        0.536452    0.408992    0.538025     0.004505
AU2518   AU        0.570530    0.378276    0.536500     0.007504
PT2519   PT        0.571482    0.410457    0.502497     0.004505
PT2520   PT        0.605647    0.377676    0.500806     0.004505
PT2521   PT        0.607893    0.406989    0.536357     0.004505
AU2522   AU        0.640342    0.376868    0.536480     0.007504
PT2523   PT        0.642454    0.409526    0.502424     0.004505
PT2524   PT        0.674895    0.377561    0.502206     0.004505
PT2525   PT        0.677245    0.409948    0.535334     0.004505
AU2526   AU        0.713015    0.379956    0.535572     0.007504
AU2527   AU        0.714289    0.409667    0.502442     0.007504
PT2528   PT        0.749241    0.378991    0.502673     0.004505
AU2529   AU        0.750221    0.407888    0.537224     0.007504
AU2530   AU        0.786283    0.379440    0.535389     0.007504
AU2531   AU        0.783529    0.411555    0.500222     0.007504
AU2532   AU        0.821539    0.379692    0.501481     0.007504
AU2533   AU        0.820188    0.409530    0.536600     0.007504
AU2534   AU        0.856522    0.381631    0.537339     0.007504
PT2535   PT        0.855080    0.409564    0.500774     0.004505
AU2536   AU        0.044235    0.437396    0.500066     0.007504
AU2537   AU        0.080009    0.437851    0.535270     0.007504
PT2538   PT        0.078242    0.471026    0.503974     0.004505
AU2539   AU        0.114736    0.440567    0.502249     0.007504
PT2540   PT        0.112256    0.469391    0.539921     0.004505
AU2541   AU        0.150799    0.439350    0.536489     0.007504
AU2542   AU        0.150705    0.471720    0.503268     0.007504
PT2543   PT        0.186671    0.439727    0.503095     0.004505
AU2544   AU        0.187313    0.471065    0.538427     0.007504
AU2545   AU        0.221282    0.438508    0.536910     0.007504
PT2546   PT        0.220638    0.470488    0.501181     0.004505
AU2547   AU        0.255706    0.439316    0.502529     0.007504
AU2548   AU        0.257338    0.470602    0.534334     0.007504
PT2549   PT        0.291188    0.439987    0.537568     0.004505
PT2550   PT        0.291634    0.471986    0.500204     0.004505
PT2551   PT        0.326098    0.439823    0.500543     0.004505
PT2552   PT        0.326015    0.471419    0.536898     0.004505
AU2553   AU        0.360262    0.438866    0.537209     0.007504
PT2554   PT        0.361532    0.469967    0.500547     0.004505
AU2555   AU        0.396144    0.441710    0.500932     0.007504
PT2556   PT        0.395949    0.469300    0.538169     0.004505
PT2557   PT        0.431288    0.438943    0.536050     0.004505
PT2558   PT        0.430521    0.472454    0.502252     0.004505
PT2559   PT        0.466566    0.438939    0.500494     0.004505
AU2560   AU        0.466712    0.472329    0.535258     0.007504
PT2561   PT        0.501363    0.441333    0.537151     0.004505
PT2562   PT        0.501487    0.471428    0.500557     0.004505
PT2563   PT        0.536857    0.440433    0.502015     0.004505
PT2564   PT        0.537064    0.471631    0.534977     0.004505
AU2565   AU        0.570564    0.439173    0.536882     0.007504
AU2566   AU        0.572861    0.470851    0.502770     0.007504
PT2567   PT        0.605638    0.439978    0.502189     0.004505
PT2568   PT        0.606306    0.469521    0.537942     0.004505
PT2569   PT        0.641296    0.440798    0.536198     0.004505
PT2570   PT        0.642639    0.470139    0.501227     0.004505
AU2571   AU        0.677584    0.438999    0.501990     0.007504
PT2572   PT        0.675945    0.470179    0.535605     0.004505
AU2573   AU        0.712719    0.438516    0.536644     0.007504
AU2574   AU        0.710974    0.470949    0.500118     0.007504
AU2575   AU        0.747646    0.440287    0.500168     0.007504
PT2576   PT        0.748321    0.468819    0.537252     0.004505
PT2577   PT        0.783375    0.440256    0.537205     0.004505
AU2578   AU        0.781811    0.468905    0.502104     0.007504
PT2579   PT        0.818787    0.441136    0.501070     0.004505
AU2580   AU        0.821649    0.469784    0.536776     0.007504
PT2581   PT        0.856295    0.439322    0.537571     0.004505
PT2582   PT        0.857600    0.469684    0.501777     0.004505
AU2583   AU        0.894417    0.440196    0.506156     0.007504
PT2584   PT        0.077165    0.500477    0.537392     0.004505
PT2585   PT        0.040697    0.529313    0.535363     0.004505
AU2586   AU        0.114114    0.500857    0.502822     0.007504
AU2587   AU        0.111655    0.531271    0.535291     0.007504
AU2588   AU        0.151238    0.500288    0.537661     0.007504
AU2589   AU        0.151774    0.531562    0.501105     0.007504
AU2590   AU        0.186291    0.501341    0.503058     0.007504
PT2591   PT        0.187252    0.532313    0.538105     0.004505
PT2592   PT        0.222263    0.501010    0.535806     0.004505
PT2593   PT        0.220604    0.532278    0.500310     0.004505
PT2594   PT        0.256367    0.501462    0.502130     0.004505
AU2595   AU        0.256226    0.530542    0.537246     0.007504
PT2596   PT        0.290737    0.500919    0.538321     0.004505
PT2597   PT        0.291650    0.532145    0.501858     0.004505
AU2598   AU        0.324984    0.501706    0.502540     0.007504
PT2599   PT        0.327196    0.532378    0.536609     0.004505
PT2600   PT        0.362255    0.500725    0.535023     0.004505
PT2601   PT        0.362214    0.532861    0.502433     0.004505
PT2602   PT        0.395397    0.501453    0.500071     0.004505
AU2603   AU        0.397908    0.533099    0.537549     0.007504
PT2604   PT        0.431300    0.501522    0.537633     0.004505
PT2605   PT        0.431553    0.532441    0.501940     0.004505
PT2606   PT        0.466414    0.501946    0.501881     0.004505
PT2607   PT        0.464706    0.532719    0.537081     0.004505
AU2608   AU        0.502881    0.502506    0.535767     0.007504
AU2609   AU        0.500543    0.533315    0.501106     0.007504
PT2610   PT        0.536926    0.501600    0.500458     0.004505
PT2611   PT        0.536746    0.532715    0.536870     0.004505
PT2612   PT        0.570037    0.501811    0.537547     0.004505
AU2613   AU        0.572254    0.533322    0.502075     0.007504
AU2614   AU        0.606786    0.500003    0.502043     0.007504
PT2615   PT        0.606720    0.532786    0.537744     0.004505
AU2616   AU        0.642226    0.499727    0.536145     0.007504
AU2617   AU        0.641752    0.530565    0.502220     0.007504
AU2618   AU        0.678444    0.501550    0.501542     0.007504
PT2619   PT        0.677830    0.531490    0.536321     0.004505
PT2620   PT        0.711006    0.501307    0.536832     0.004505
AU2621   AU        0.712881    0.531299    0.499209     0.007504
PT2622   PT        0.745759    0.500278    0.500973     0.004505
PT2623   PT        0.745985    0.531862    0.534401     0.004505
PT2624   PT        0.782895    0.501106    0.535484     0.004505
AU2625   AU        0.783022    0.531549    0.501608     0.007504
AU2626   AU        0.818744    0.499819    0.502860     0.007504
AU2627   AU        0.820718    0.531096    0.535375     0.007504
AU2628   AU        0.856861    0.499885    0.538013     0.007504
AU2629   AU        0.857901    0.530064    0.502790     0.007504
AU2630   AU        0.075159    0.562593    0.535006     0.007504
PT2631   PT        0.079733    0.596159    0.502977     0.004505
AU2632   AU        0.113412    0.562411    0.501052     0.007504
PT2633   PT        0.115061    0.595434    0.535931     0.004505
AU2634   AU        0.150818    0.561906    0.537133     0.007504
AU2635   AU        0.151364    0.592664    0.501683     0.007504
AU2636   AU        0.186817    0.560883    0.503494     0.007504
PT2637   PT        0.187025    0.595125    0.536126     0.004505
PT2638   PT        0.222239    0.561793    0.536921     0.004505
PT2639   PT        0.221113    0.594302    0.501330     0.004505
AU2640   AU        0.255845    0.561954    0.502015     0.007504
AU2641   AU        0.255275    0.592651    0.536185     0.007504
AU2642   AU        0.291347    0.561675    0.537451     0.007504
AU2643   AU        0.292810    0.592633    0.504257     0.007504
PT2644   PT        0.326072    0.562826    0.500519     0.004505
PT2645   PT        0.327602    0.593884    0.536969     0.004505
PT2646   PT        0.361521    0.561405    0.536837     0.004505
PT2647   PT        0.362350    0.591116    0.502068     0.004505
AU2648   AU        0.395448    0.562312    0.502149     0.007504
PT2649   PT        0.395311    0.592706    0.536867     0.004505
PT2650   PT        0.432229    0.563984    0.535956     0.004505
PT2651   PT        0.431379    0.593971    0.501985     0.004505
PT2652   PT        0.466855    0.563779    0.501070     0.004505
PT2653   PT        0.467207    0.594306    0.536690     0.004505
AU2654   AU        0.500832    0.562090    0.535223     0.007504
PT2655   PT        0.502909    0.594001    0.501484     0.004505
PT2656   PT        0.537031    0.561466    0.502424     0.004505
PT2657   PT        0.536249    0.592502    0.535929     0.004505
PT2658   PT        0.573049    0.562494    0.538587     0.004505
AU2659   AU        0.573032    0.592444    0.501964     0.007504
AU2660   AU        0.608168    0.561874    0.502267     0.007504
PT2661   PT        0.606189    0.594525    0.536655     0.004505
PT2662   PT        0.641410    0.563062    0.537574     0.004505
AU2663   AU        0.641417    0.593358    0.502487     0.007504
PT2664   PT        0.676558    0.561306    0.499979     0.004505
PT2665   PT        0.676476    0.592780    0.535882     0.004505
AU2666   AU        0.710755    0.561466    0.536019     0.007504
AU2667   AU        0.711577    0.594178    0.502905     0.007504
AU2668   AU        0.747646    0.562265    0.501578     0.007504
PT2669   PT        0.748698    0.593274    0.536084     0.004505
AU2670   AU        0.784741    0.562941    0.535152     0.007504
AU2671   AU        0.789342    0.594779    0.499559     0.007504
PT2672   PT        0.824150    0.565151    0.502198     0.004505
PT2673   PT        0.825335    0.597798    0.536476     0.004505
AU2674   AU        0.859610    0.561692    0.534922     0.007504
PT2675   PT        0.861827    0.594454    0.503320     0.004505
AU2676   AU        0.113191    0.627052    0.498860     0.007504
AU2677   AU        0.151720    0.625851    0.535235     0.007504
AU2678   AU        0.147692    0.657576    0.500572     0.007504
PT2679   PT        0.186855    0.624839    0.500141     0.004505
PT2680   PT        0.188639    0.656230    0.536697     0.004505
PT2681   PT        0.222454    0.624468    0.536450     0.004505
AU2682   AU        0.221083    0.655876    0.501100     0.007504
PT2683   PT        0.256837    0.623669    0.500342     0.004505
PT2684   PT        0.256829    0.654338    0.536146     0.004505
AU2685   AU        0.290120    0.623253    0.537627     0.007504
PT2686   PT        0.292332    0.653953    0.502688     0.004505
AU2687   AU        0.327790    0.624120    0.500749     0.007504
AU2688   AU        0.328049    0.653825    0.537984     0.007504
PT2689   PT        0.362338    0.624506    0.535413     0.004505
AU2690   AU        0.363410    0.654831    0.502410     0.007504
PT2691   PT        0.396502    0.623269    0.501224     0.004505
AU2692   AU        0.397095    0.654495    0.535728     0.007504
AU2693   AU        0.431322    0.623071    0.536451     0.007504
PT2694   PT        0.431902    0.654890    0.501416     0.004505
PT2695   PT        0.467522    0.624768    0.502359     0.004505
PT2696   PT        0.466633    0.655137    0.535400     0.004505
AU2697   AU        0.502904    0.625127    0.536969     0.007504
AU2698   AU        0.503511    0.655795    0.501606     0.007504
PT2699   PT        0.536897    0.623038    0.501986     0.004505
PT2700   PT        0.537402    0.655191    0.534119     0.004505
PT2701   PT        0.574016    0.623850    0.535324     0.004505
PT2702   PT        0.572840    0.655198    0.501466     0.004505
PT2703   PT        0.607424    0.625187    0.500466     0.004505
AU2704   AU        0.607052    0.654295    0.537883     0.007504
AU2705   AU        0.642262    0.624568    0.537138     0.007504
PT2706   PT        0.640983    0.653765    0.502987     0.004505
AU2707   AU        0.677711    0.625997    0.503008     0.007504
AU2708   AU        0.676744    0.656019    0.536361     0.007504
PT2709   PT        0.715320    0.625677    0.536678     0.004505
AU2710   AU        0.715819    0.653750    0.498127     0.007504
AU2711   AU        0.752016    0.625583    0.501862     0.007504
AU2712   AU        0.750480    0.657234    0.540011     0.007504
AU2713   AU        0.786653    0.625111    0.536510     0.007504
AU2714   AU        0.788455    0.654428    0.501601     0.007504
PT2715   PT        0.828302    0.624621    0.497466     0.004505
PT2716   PT        0.183701    0.687399    0.504899     0.004505
PT2717   PT        0.219549    0.691090    0.538080     0.004505
AU2718   AU        0.218912    0.719833    0.500072     0.007504
AU2719   AU        0.257005    0.685221    0.500621     0.007504
AU2720   AU        0.256343    0.718859    0.535442     0.007504
AU2721   AU        0.290862    0.686130    0.535750     0.007504
AU2722   AU        0.292069    0.715454    0.500848     0.007504
PT2723   PT        0.326551    0.685777    0.502878     0.004505
PT2724   PT        0.327175    0.716933    0.535546     0.004505
PT2725   PT        0.363926    0.686105    0.536836     0.004505
AU2726   AU        0.362765    0.715393    0.501507     0.007504
PT2727   PT        0.397923    0.686533    0.501548     0.004505
PT2728   PT        0.397983    0.717075    0.537665     0.004505
PT2729   PT        0.432898    0.685093    0.536371     0.004505
AU2730   AU        0.431153    0.717248    0.500755     0.007504
AU2731   AU        0.468289    0.687740    0.501908     0.007504
AU2732   AU        0.469010    0.717571    0.535510     0.007504
AU2733   AU        0.502825    0.687195    0.537316     0.007504
AU2734   AU        0.503445    0.715564    0.501571     0.007504
PT2735   PT        0.537031    0.686293    0.501516     0.004505
AU2736   AU        0.536851    0.718105    0.536877     0.007504
PT2737   PT        0.572929    0.685844    0.535269     0.004505
AU2738   AU        0.575310    0.716486    0.500775     0.007504
PT2739   PT        0.607940    0.684964    0.501067     0.004505
PT2740   PT        0.609144    0.716714    0.536599     0.004505
AU2741   AU        0.641349    0.686630    0.536942     0.007504
PT2742   PT        0.643739    0.717761    0.502350     0.004505
PT2743   PT        0.676984    0.685084    0.501590     0.004505
AU2744   AU        0.679014    0.717405    0.536560     0.007504
AU2745   AU        0.712837    0.685369    0.533680     0.007504
AU2746   AU        0.714535    0.718005    0.503557     0.007504
AU2747   AU        0.750066    0.687517    0.502037     0.007504
AU2748   AU        0.254093    0.751037    0.502077     0.007504
AU2749   AU        0.291933    0.749834    0.536568     0.007504
AU2750   AU        0.290711    0.782202    0.503200     0.007504
AU2751   AU        0.325382    0.748836    0.500992     0.007504
AU2752   AU        0.327194    0.778949    0.535456     0.007504
PT2753   PT        0.363594    0.746497    0.535524     0.004505
AU2754   AU        0.365052    0.779264    0.499820     0.007504
PT2755   PT        0.398385    0.748609    0.501486     0.004505
AU2756   AU        0.401572    0.780496    0.535469     0.007504
AU2757   AU        0.433201    0.748170    0.535139     0.007504
AU2758   AU        0.434804    0.779066    0.500654     0.007504
PT2759   PT        0.465910    0.747844    0.500602     0.004505
PT2760   PT        0.470837    0.778197    0.534883     0.004505
AU2761   AU        0.502278    0.746973    0.535652     0.007504
PT2762   PT        0.507005    0.778870    0.502228     0.004505
AU2763   AU        0.537081    0.745919    0.501233     0.007504
AU2764   AU        0.539952    0.779748    0.536661     0.007504
AU2765   AU        0.573314    0.748264    0.534864     0.007504
PT2766   PT        0.574904    0.780851    0.499825     0.004505
AU2767   AU        0.610918    0.750647    0.499437     0.007504
PT2768   PT        0.574297    0.813366    0.536106     0.004505
AU2769   AU        0.644639    0.752042    0.536235     0.007504
PT2770   PT        0.642294    0.784393    0.500025     0.004505
AU2771   AU        0.679488    0.747791    0.501950     0.007504
AU2772   AU        0.473140    0.811483    0.500143     0.007504
AU2773   AU        0.360478    0.099255    0.571717     0.007504
AU2774   AU        0.357315    0.097763    0.647287     0.007504
AU2775   AU        0.430623    0.095087    0.572077     0.007504
AU2776   AU        0.436410    0.065908    0.612807     0.007504
AU2777   AU        0.500991    0.097118    0.576949     0.007504
PT2778   PT        0.541721    0.097482    0.607321     0.004505
AU2779   AU        0.574187    0.099025    0.573129     0.007504
PT2780   PT        0.215845    0.160008    0.569312     0.004505
PT2781   PT        0.251669    0.160655    0.603180     0.004505
PT2782   PT        0.291262    0.132560    0.607488     0.004505
AU2783   AU        0.292918    0.161589    0.571244     0.007504
AU2784   AU        0.325848    0.130592    0.568874     0.007504
AU2785   AU        0.326457    0.164246    0.607101     0.007504
PT2786   PT        0.358457    0.129092    0.608078     0.004505
AU2787   AU        0.361744    0.163699    0.571030     0.007504
AU2788   AU        0.397726    0.129706    0.571694     0.007504
AU2789   AU        0.395771    0.159387    0.606246     0.007504
AU2790   AU        0.431854    0.127342    0.605420     0.007504
PT2791   PT        0.432359    0.163254    0.571655     0.004505
PT2792   PT        0.465583    0.131300    0.571991     0.004505
AU2793   AU        0.464629    0.160168    0.608294     0.007504
AU2794   AU        0.504025    0.129182    0.607545     0.007504
AU2795   AU        0.500760    0.161042    0.573752     0.007504
AU2796   AU        0.536246    0.128697    0.571881     0.007504
AU2797   AU        0.536796    0.163016    0.606693     0.007504
PT2798   PT        0.572068    0.131681    0.606928     0.004505
AU2799   AU        0.572454    0.163207    0.572555     0.007504
PT2800   PT        0.609261    0.132384    0.573241     0.004505
AU2801   AU        0.607856    0.162873    0.608266     0.007504
PT2802   PT        0.641751    0.128349    0.608449     0.004505
PT2803   PT        0.644373    0.160673    0.572404     0.004505
AU2804   AU        0.678816    0.158711    0.605873     0.007504
AU2805   AU        0.716839    0.158769    0.568971     0.007504
AU2806   AU        0.147581    0.221886    0.569846     0.007504
AU2807   AU        0.181798    0.192908    0.570870     0.007504
AU2808   AU        0.186204    0.224625    0.606341     0.007504
AU2809   AU        0.218767    0.190684    0.604674     0.007504
AU2810   AU        0.219429    0.224970    0.570020     0.007504
PT2811   PT        0.253822    0.192210    0.571095     0.004505
PT2812   PT        0.257286    0.222842    0.605649     0.004505
AU2813   AU        0.291049    0.191740    0.605275     0.007504
AU2814   AU        0.291279    0.224171    0.571816     0.007504
AU2815   AU        0.325585    0.194405    0.570862     0.007504
PT2816   PT        0.327918    0.225161    0.606353     0.004505
AU2817   AU        0.361839    0.193557    0.605971     0.007504
PT2818   PT        0.361412    0.225235    0.572273     0.004505
PT2819   PT        0.398041    0.194398    0.572358     0.004505
AU2820   AU        0.396379    0.226219    0.606204     0.007504
PT2821   PT        0.429602    0.191483    0.607517     0.004505
PT2822   PT        0.431663    0.225756    0.572471     0.004505
AU2823   AU        0.465924    0.193266    0.574888     0.007504
AU2824   AU        0.466566    0.224653    0.607321     0.007504
AU2825   AU        0.502137    0.192858    0.609826     0.007504
AU2826   AU        0.500919    0.222106    0.572448     0.007504
AU2827   AU        0.535645    0.193484    0.571468     0.007504
PT2828   PT        0.535530    0.224401    0.606189     0.004505
AU2829   AU        0.570443    0.194268    0.605884     0.007504
PT2830   PT        0.570532    0.223900    0.571449     0.004505
AU2831   AU        0.606346    0.192994    0.571507     0.007504
AU2832   AU        0.610937    0.221154    0.607144     0.007504
PT2833   PT        0.645877    0.190307    0.608545     0.004505
PT2834   PT        0.643062    0.221641    0.574103     0.004505
PT2835   PT        0.679465    0.192410    0.571080     0.004505
PT2836   PT        0.677289    0.222159    0.608025     0.004505
PT2837   PT        0.715519    0.187165    0.605860     0.004505
AU2838   AU        0.715587    0.221530    0.572707     0.007504
PT2839   PT        0.751588    0.190396    0.568167     0.004505
AU2840   AU        0.751213    0.220811    0.605217     0.007504
AU2841   AU        0.789261    0.219444    0.572794     0.007504
AU2842   AU        0.109031    0.286213    0.606857     0.007504
AU2843   AU        0.149519    0.253662    0.604880     0.007504
PT2844   PT        0.150421    0.282875    0.572407     0.004505
AU2845   AU        0.186735    0.255149    0.571015     0.007504
AU2846   AU        0.183525    0.284374    0.607900     0.007504
AU2847   AU        0.220921    0.256019    0.604722     0.007504
PT2848   PT        0.222079    0.286013    0.569490     0.004505
AU2849   AU        0.256761    0.254713    0.574629     0.007504
PT2850   PT        0.257123    0.284915    0.605641     0.004505
PT2851   PT        0.292486    0.254742    0.608330     0.004505
AU2852   AU        0.290011    0.285207    0.571560     0.007504
PT2853   PT        0.326813    0.255493    0.571042     0.004505
PT2854   PT        0.325066    0.287367    0.605603     0.004505
PT2855   PT        0.362368    0.255108    0.607696     0.004505
PT2856   PT        0.360864    0.287505    0.572841     0.004505
AU2857   AU        0.396216    0.256634    0.571945     0.007504
PT2858   PT        0.397825    0.286099    0.607890     0.004505
AU2859   AU        0.430898    0.256615    0.608061     0.007504
PT2860   PT        0.431664    0.286851    0.571920     0.004505
PT2861   PT        0.466529    0.255458    0.571454     0.004505
PT2862   PT        0.466916    0.287107    0.607581     0.004505
PT2863   PT        0.501220    0.256685    0.607345     0.004505
PT2864   PT        0.502161    0.285504    0.572932     0.004505
PT2865   PT        0.535345    0.254505    0.573955     0.004505
AU2866   AU        0.537692    0.285838    0.607787     0.007504
AU2867   AU        0.571942    0.252620    0.608232     0.007504
PT2868   PT        0.571871    0.283722    0.570031     0.004505
AU2869   AU        0.607474    0.254205    0.572351     0.007504
PT2870   PT        0.604730    0.285290    0.608033     0.004505
PT2871   PT        0.641637    0.253988    0.605555     0.004505
PT2872   PT        0.640190    0.286011    0.571400     0.004505
AU2873   AU        0.679817    0.255346    0.571563     0.007504
PT2874   PT        0.675855    0.285700    0.603904     0.004505
AU2875   AU        0.712621    0.255343    0.608878     0.007504
PT2876   PT        0.714712    0.286600    0.570211     0.004505
PT2877   PT        0.746385    0.254417    0.572951     0.004505
AU2878   AU        0.749716    0.285086    0.608688     0.007504
AU2879   AU        0.789221    0.251636    0.607045     0.007504
AU2880   AU        0.788727    0.281842    0.573026     0.007504
AU2881   AU        0.825294    0.285656    0.608861     0.007504
AU2882   AU        0.076781    0.345970    0.570636     0.007504
AU2883   AU        0.116566    0.316328    0.574077     0.007504
PT2884   PT        0.111752    0.346538    0.607511     0.004505
AU2885   AU        0.149029    0.315287    0.610361     0.007504
AU2886   AU        0.152548    0.346833    0.571460     0.007504
AU2887   AU        0.187219    0.315253    0.572793     0.007504
AU2888   AU        0.184925    0.346211    0.606553     0.007504
PT2889   PT        0.222248    0.315791    0.606578     0.004505
PT2890   PT        0.220954    0.348459    0.571224     0.004505
PT2891   PT        0.257581    0.315658    0.570845     0.004505
PT2892   PT        0.255949    0.347478    0.605251     0.004505
AU2893   AU        0.290287    0.316411    0.605644     0.007504
PT2894   PT        0.292882    0.348514    0.571956     0.004505
PT2895   PT        0.326277    0.317798    0.571817     0.004505
PT2896   PT        0.327683    0.347666    0.606118     0.004505
PT2897   PT        0.361876    0.317964    0.606802     0.004505
PT2898   PT        0.361368    0.348304    0.570016     0.004505
AU2899   AU        0.397001    0.315839    0.571706     0.007504
PT2900   PT        0.395751    0.347694    0.606335     0.004505
PT2901   PT        0.430877    0.316959    0.605972     0.004505
PT2902   PT        0.430481    0.347656    0.572625     0.004505
AU2903   AU        0.466904    0.317173    0.572432     0.007504
PT2904   PT        0.465955    0.346455    0.605047     0.004505
AU2905   AU        0.502869    0.317309    0.608200     0.007504
AU2906   AU        0.502632    0.347486    0.571933     0.007504
PT2907   PT        0.535891    0.316241    0.571212     0.004505
PT2908   PT        0.536455    0.349446    0.607349     0.004505
AU2909   AU        0.571171    0.317953    0.605845     0.007504
PT2910   PT        0.570922    0.347888    0.570070     0.004505
PT2911   PT        0.605810    0.316645    0.572532     0.004505
AU2912   AU        0.606386    0.348596    0.606404     0.007504
PT2913   PT        0.644236    0.316942    0.605449     0.004505
PT2914   PT        0.640746    0.347902    0.571777     0.004505
PT2915   PT        0.676835    0.316427    0.569600     0.004505
AU2916   AU        0.679176    0.348168    0.605649     0.007504
PT2917   PT        0.713421    0.314185    0.604711     0.004505
PT2918   PT        0.712139    0.347347    0.570944     0.004505
AU2919   AU        0.748586    0.317908    0.570915     0.007504
AU2920   AU        0.748636    0.347693    0.605899     0.007504
PT2921   PT        0.783262    0.317324    0.604550     0.004505
PT2922   PT        0.784741    0.349192    0.571536     0.004505
AU2923   AU        0.820306    0.316456    0.574081     0.007504
AU2924   AU        0.821619    0.344952    0.609151     0.007504
AU2925   AU        0.857630    0.346316    0.572225     0.007504
AU2926   AU        0.038169    0.410178    0.608796     0.007504
AU2927   AU        0.076971    0.410123    0.574098     0.007504
PT2928   PT        0.114387    0.378856    0.574060     0.004505
AU2929   AU        0.113517    0.408522    0.609607     0.007504
PT2930   PT        0.150659    0.378774    0.607013     0.004505
AU2931   AU        0.150965    0.409822    0.572138     0.007504
AU2932   AU        0.185463    0.377232    0.572529     0.007504
PT2933   PT        0.185139    0.408089    0.605628     0.004505
PT2934   PT        0.220385    0.377718    0.607560     0.004505
PT2935   PT        0.221344    0.409045    0.572740     0.004505
AU2936   AU        0.255324    0.378447    0.571856     0.007504
AU2937   AU        0.255141    0.407672    0.608178     0.007504
PT2938   PT        0.291702    0.377742    0.606470     0.004505
PT2939   PT        0.292321    0.408836    0.572083     0.004505
PT2940   PT        0.327457    0.377010    0.571213     0.004505
PT2941   PT        0.326995    0.408954    0.606434     0.004505
AU2942   AU        0.360998    0.377291    0.606774     0.007504
PT2943   PT        0.360503    0.408065    0.571990     0.004505
AU2944   AU        0.396673    0.378600    0.569576     0.007504
AU2945   AU        0.394951    0.407857    0.604750     0.007504
PT2946   PT        0.431548    0.378124    0.606108     0.004505
AU2947   AU        0.430937    0.407392    0.570061     0.007504
PT2948   PT        0.466038    0.377649    0.570804     0.004505
PT2949   PT        0.465524    0.406861    0.606723     0.004505
PT2950   PT        0.501052    0.377723    0.605790     0.004505
PT2951   PT        0.502572    0.408686    0.571767     0.004505
PT2952   PT        0.536640    0.378502    0.571728     0.004505
AU2953   AU        0.537640    0.408588    0.607373     0.007504
PT2954   PT        0.572221    0.377497    0.607426     0.004505
PT2955   PT        0.572859    0.408488    0.571896     0.004505
PT2956   PT        0.607546    0.378657    0.572936     0.004505
PT2957   PT        0.607627    0.409397    0.608666     0.004505
PT2958   PT        0.641412    0.378562    0.607059     0.004505
PT2959   PT        0.641020    0.409437    0.571878     0.004505
PT2960   PT        0.675781    0.377741    0.570656     0.004505
PT2961   PT        0.676941    0.409169    0.605925     0.004505
PT2962   PT        0.711555    0.379339    0.605741     0.004505
PT2963   PT        0.713084    0.410421    0.572371     0.004505
AU2964   AU        0.751030    0.378975    0.572466     0.007504
AU2965   AU        0.749200    0.409352    0.607370     0.007504
AU2966   AU        0.787239    0.378149    0.609737     0.007504
AU2967   AU        0.786584    0.407418    0.571785     0.007504
PT2968   PT        0.821569    0.376103    0.574479     0.004505
PT2969   PT        0.825164    0.408024    0.606866     0.004505
AU2970   AU        0.858259    0.377392    0.606549     0.007504
AU2971   AU        0.891989    0.439175    0.578268     0.007504
AU2972   AU        0.077844    0.471882    0.646543     0.007504
AU2973   AU        0.042736    0.469307    0.538236     0.007504
PT2974   PT        0.115182    0.436289    0.571868     0.004505
AU2975   AU        0.108196    0.467187    0.608304     0.007504
AU2976   AU        0.149876    0.439619    0.610625     0.007504
AU2977   AU        0.149559    0.469372    0.574944     0.007504
AU2978   AU        0.186412    0.437824    0.571924     0.007504
PT2979   PT        0.186275    0.468954    0.607496     0.004505
AU2980   AU        0.221948    0.437362    0.606608     0.007504
PT2981   PT        0.221548    0.469071    0.572519     0.004505
AU2982   AU        0.256139    0.440563    0.572876     0.007504
PT2983   PT        0.257701    0.470196    0.607366     0.004505
PT2984   PT        0.291057    0.439323    0.607319     0.004505
PT2985   PT        0.289602    0.471014    0.571654     0.004505
AU2986   AU        0.326623    0.440588    0.572410     0.007504
AU2987   AU        0.325813    0.470701    0.608370     0.007504
PT2988   PT        0.361513    0.439984    0.606303     0.004505
PT2989   PT        0.360644    0.471245    0.572393     0.004505
AU2990   AU        0.396007    0.440649    0.571246     0.007504
AU2991   AU        0.396498    0.470996    0.607904     0.007504
PT2992   PT        0.429725    0.439099    0.606524     0.004505
PT2993   PT        0.430329    0.469497    0.572018     0.004505
PT2994   PT        0.465607    0.439262    0.571974     0.004505
PT2995   PT        0.466716    0.469798    0.605974     0.004505
PT2996   PT        0.502186    0.438813    0.607074     0.004505
PT2997   PT        0.501294    0.471051    0.572539     0.004505
PT2998   PT        0.537715    0.439750    0.572171     0.004505
PT2999   PT        0.535926    0.471877    0.605595     0.004505
AU3000   AU        0.571884    0.439989    0.607099     0.007504
PT3001   PT        0.570569    0.470791    0.573702     0.004505
PT3002   PT        0.607047    0.438966    0.571734     0.004505
PT3003   PT        0.608412    0.471103    0.608066     0.004505
PT3004   PT        0.640870    0.439973    0.607571     0.004505
PT3005   PT        0.642665    0.470525    0.573797     0.004505
AU3006   AU        0.676334    0.440335    0.571017     0.007504
PT3007   PT        0.678387    0.469928    0.608935     0.004505
AU3008   AU        0.712540    0.440540    0.606773     0.007504
AU3009   AU        0.710448    0.469611    0.568408     0.007504
AU3010   AU        0.748399    0.437811    0.571628     0.007504
PT3011   PT        0.748002    0.470358    0.606889     0.004505
AU3012   AU        0.787346    0.440194    0.606722     0.007504
PT3013   PT        0.783870    0.471275    0.573287     0.004505
AU3014   AU        0.821493    0.440308    0.572610     0.007504
PT3015   PT        0.822725    0.470968    0.608575     0.004505
AU3016   AU        0.855725    0.441347    0.608834     0.007504
AU3017   AU        0.858828    0.470222    0.574781     0.007504
AU3018   AU        0.073006    0.501149    0.607754     0.007504
PT3019   PT        0.075223    0.531680    0.569799     0.004505
AU3020   AU        0.113531    0.499424    0.573143     0.007504
PT3021   PT        0.111391    0.530546    0.607348     0.004505
PT3022   PT        0.149514    0.500388    0.607394     0.004505
PT3023   PT        0.150997    0.530827    0.570507     0.004505
PT3024   PT        0.186649    0.502977    0.571423     0.004505
AU3025   AU        0.186253    0.532879    0.606732     0.007504
PT3026   PT        0.221725    0.498936    0.606405     0.004505
PT3027   PT        0.222079    0.531884    0.571877     0.004505
AU3028   AU        0.255107    0.500670    0.572338     0.007504
AU3029   AU        0.255356    0.530172    0.607525     0.007504
PT3030   PT        0.292146    0.501137    0.607677     0.004505
AU3031   AU        0.290406    0.530064    0.571814     0.007504
AU3032   AU        0.326856    0.500910    0.571844     0.007504
PT3033   PT        0.325867    0.531147    0.606998     0.004505
PT3034   PT        0.360913    0.501261    0.607508     0.004505
PT3035   PT        0.362109    0.531579    0.571362     0.004505
PT3036   PT        0.395983    0.501427    0.571343     0.004505
AU3037   AU        0.395854    0.531737    0.606589     0.007504
AU3038   AU        0.431300    0.501975    0.606805     0.007504
PT3039   PT        0.430995    0.531481    0.571716     0.004505
PT3040   PT        0.465588    0.501862    0.570936     0.004505
PT3041   PT        0.466311    0.529701    0.606629     0.004505
PT3042   PT        0.500291    0.499678    0.606509     0.004505
PT3043   PT        0.501344    0.533256    0.571889     0.004505
AU3044   AU        0.535569    0.500985    0.572927     0.007504
PT3045   PT        0.536342    0.531820    0.606798     0.004505
AU3046   AU        0.571402    0.502768    0.606636     0.007504
PT3047   PT        0.570962    0.532410    0.571973     0.004505
PT3048   PT        0.605913    0.502353    0.571160     0.004505
PT3049   PT        0.607728    0.532496    0.607066     0.004505
PT3050   PT        0.642146    0.501277    0.607561     0.004505
PT3051   PT        0.643270    0.531284    0.571284     0.004505
PT3052   PT        0.676370    0.500914    0.571728     0.004505
AU3053   AU        0.676736    0.530577    0.607183     0.007504
PT3054   PT        0.712833    0.500395    0.606117     0.004505
PT3055   PT        0.712793    0.532057    0.572379     0.004505
AU3056   AU        0.746564    0.499608    0.570665     0.007504
AU3057   AU        0.747758    0.532071    0.607004     0.007504
AU3058   AU        0.782127    0.500316    0.606375     0.007504
AU3059   AU        0.782655    0.530971    0.569982     0.007504
AU3060   AU        0.820321    0.500215    0.569867     0.007504
PT3061   PT        0.817808    0.531570    0.604253     0.004505
PT3062   PT        0.857791    0.508867    0.611639     0.004505
AU3063   AU        0.859702    0.532779    0.570841     0.007504
AU3064   AU        0.111939    0.564868    0.571108     0.007504
PT3065   PT        0.114425    0.595018    0.609501     0.004505
PT3066   PT        0.149808    0.561533    0.605238     0.004505
AU3067   AU        0.147483    0.593397    0.572088     0.007504
PT3068   PT        0.185815    0.561825    0.569414     0.004505
PT3069   PT        0.184680    0.593533    0.604876     0.004505
PT3070   PT        0.220710    0.564597    0.605186     0.004505
PT3071   PT        0.220637    0.592607    0.569735     0.004505
PT3072   PT        0.257341    0.561954    0.571233     0.004505
AU3073   AU        0.257691    0.595426    0.606123     0.007504
AU3074   AU        0.292557    0.562930    0.606514     0.007504
PT3075   PT        0.291524    0.594146    0.571556     0.004505
PT3076   PT        0.326129    0.561999    0.569867     0.004505
PT3077   PT        0.324962    0.593265    0.606597     0.004505
AU3078   AU        0.360714    0.563619    0.606905     0.007504
AU3079   AU        0.360625    0.593278    0.571097     0.007504
PT3080   PT        0.397213    0.562671    0.572726     0.004505
AU3081   AU        0.397294    0.594684    0.605764     0.007504
AU3082   AU        0.432010    0.561526    0.606317     0.007504
PT3083   PT        0.431726    0.594182    0.571683     0.004505
AU3084   AU        0.465593    0.561867    0.571312     0.007504
PT3085   PT        0.467980    0.593120    0.607920     0.004505
PT3086   PT        0.501788    0.561790    0.606852     0.004505
PT3087   PT        0.500727    0.592815    0.571516     0.004505
PT3088   PT        0.535312    0.562327    0.571251     0.004505
PT3089   PT        0.536850    0.593012    0.606594     0.004505
PT3090   PT        0.571571    0.563973    0.605480     0.004505
PT3091   PT        0.571430    0.593568    0.570341     0.004505
PT3092   PT        0.607171    0.562875    0.572931     0.004505
PT3093   PT        0.606555    0.594892    0.605445     0.004505
PT3094   PT        0.642102    0.562544    0.607419     0.004505
AU3095   AU        0.643186    0.594003    0.571606     0.007504
AU3096   AU        0.676866    0.562687    0.571550     0.007504
PT3097   PT        0.676688    0.594152    0.606238     0.004505
AU3098   AU        0.710622    0.562409    0.606220     0.007504
AU3099   AU        0.712352    0.593810    0.570512     0.007504
AU3100   AU        0.747425    0.562817    0.570756     0.007504
AU3101   AU        0.746936    0.592204    0.604345     0.007504
AU3102   AU        0.782260    0.560679    0.603756     0.007504
AU3103   AU        0.789120    0.593614    0.572939     0.007504
AU3104   AU        0.825916    0.562781    0.569560     0.007504
AU3105   AU        0.822091    0.590043    0.608339     0.007504
AU3106   AU        0.147948    0.624731    0.605907     0.007504
PT3107   PT        0.150766    0.653921    0.571366     0.004505
AU3108   AU        0.184617    0.625076    0.572443     0.007504
PT3109   PT        0.185147    0.654881    0.608301     0.004505
AU3110   AU        0.221654    0.623161    0.608594     0.007504
PT3111   PT        0.220960    0.656163    0.572053     0.004505
AU3112   AU        0.254901    0.624112    0.570876     0.007504
AU3113   AU        0.256290    0.656444    0.606037     0.007504
AU3114   AU        0.291650    0.625814    0.605927     0.007504
PT3115   PT        0.293277    0.654879    0.570055     0.004505
PT3116   PT        0.326712    0.624682    0.572434     0.004505
PT3117   PT        0.326743    0.654649    0.605762     0.004505
PT3118   PT        0.361322    0.624151    0.607011     0.004505
PT3119   PT        0.362496    0.655692    0.570471     0.004505
PT3120   PT        0.398231    0.624741    0.570242     0.004505
PT3121   PT        0.396398    0.654819    0.607062     0.004505
PT3122   PT        0.431642    0.624033    0.607502     0.004505
PT3123   PT        0.431423    0.655003    0.572561     0.004505
PT3124   PT        0.465475    0.624136    0.572126     0.004505
PT3125   PT        0.467029    0.653995    0.605994     0.004505
PT3126   PT        0.500992    0.624937    0.606545     0.004505
PT3127   PT        0.501865    0.654177    0.571061     0.004505
PT3128   PT        0.536551    0.623175    0.571945     0.004505
PT3129   PT        0.535994    0.656175    0.606757     0.004505
PT3130   PT        0.571913    0.622965    0.605857     0.004505
AU3131   AU        0.570902    0.653687    0.572777     0.007504
PT3132   PT        0.607395    0.624174    0.572338     0.004505
AU3133   AU        0.605810    0.654913    0.604920     0.007504
PT3134   PT        0.641720    0.624570    0.607081     0.004505
AU3135   AU        0.642265    0.653587    0.570810     0.007504
AU3136   AU        0.678626    0.623056    0.569349     0.007504
PT3137   PT        0.679599    0.654664    0.608753     0.004505
AU3138   AU        0.712697    0.623630    0.604502     0.007504
AU3139   AU        0.713478    0.656086    0.572148     0.007504
AU3140   AU        0.749806    0.626335    0.573992     0.007504
PT3141   PT        0.755577    0.657824    0.604203     0.004505
PT3142   PT        0.788936    0.655047    0.640114     0.004505
PT3143   PT        0.795064    0.652556    0.575526     0.004505
PT3144   PT        0.184320    0.688742    0.571638     0.004505
AU3145   AU        0.221173    0.689528    0.608594     0.007504
PT3146   PT        0.220761    0.722685    0.573142     0.004505
AU3147   AU        0.255999    0.688349    0.572194     0.007504
AU3148   AU        0.257948    0.719679    0.606100     0.007504
AU3149   AU        0.291157    0.685739    0.604481     0.007504
AU3150   AU        0.292862    0.716529    0.570766     0.007504
PT3151   PT        0.327459    0.685373    0.569597     0.004505
PT3152   PT        0.326623    0.717121    0.604099     0.004505
PT3153   PT        0.362681    0.685082    0.604933     0.004505
PT3154   PT        0.361527    0.715266    0.570842     0.004505
AU3155   AU        0.397222    0.684765    0.570043     0.007504
AU3156   AU        0.396118    0.715716    0.606392     0.007504
PT3157   PT        0.432356    0.685645    0.606269     0.004505
PT3158   PT        0.432403    0.718032    0.568815     0.004505
AU3159   AU        0.467186    0.686823    0.570335     0.007504
AU3160   AU        0.468484    0.716346    0.608204     0.007504
PT3161   PT        0.503479    0.686022    0.604752     0.004505
PT3162   PT        0.501198    0.715277    0.572566     0.004505
PT3163   PT        0.536227    0.686056    0.570643     0.004505
AU3164   AU        0.538110    0.716520    0.606352     0.007504
PT3165   PT        0.571070    0.686106    0.606232     0.004505
AU3166   AU        0.572936    0.716539    0.571369     0.007504
AU3167   AU        0.606479    0.685357    0.571343     0.007504
AU3168   AU        0.609647    0.717458    0.607349     0.007504
AU3169   AU        0.641852    0.684927    0.606373     0.007504
AU3170   AU        0.643315    0.720064    0.570792     0.007504
AU3171   AU        0.677449    0.684734    0.572123     0.007504
AU3172   AU        0.679708    0.715181    0.605930     0.007504
PT3173   PT        0.717527    0.685020    0.606812     0.004505
PT3174   PT        0.717352    0.716970    0.567622     0.004505
AU3175   AU        0.824989    0.687457    0.572408     0.007504
PT3176   PT        0.294533    0.752880    0.608615     0.004505
AU3177   AU        0.327362    0.747857    0.571169     0.007504
PT3178   PT        0.361760    0.748025    0.604618     0.004505
AU3179   AU        0.362367    0.779441    0.569610     0.007504
AU3180   AU        0.398215    0.747979    0.571050     0.007504
PT3181   PT        0.398244    0.781637    0.604088     0.004505
AU3182   AU        0.432725    0.749439    0.605365     0.007504
PT3183   PT        0.436204    0.783923    0.571529     0.004505
PT3184   PT        0.467087    0.748420    0.571021     0.004505
PT3185   PT        0.470320    0.781974    0.605685     0.004505
AU3186   AU        0.501091    0.749646    0.606301     0.007504
AU3187   AU        0.502970    0.778230    0.570343     0.007504
AU3188   AU        0.537617    0.748972    0.569593     0.007504
PT3189   PT        0.537737    0.777603    0.606349     0.004505
PT3190   PT        0.573836    0.749360    0.608185     0.004505
PT3191   PT        0.575291    0.778639    0.570470     0.004505
AU3192   AU        0.607638    0.747577    0.573052     0.007504
AU3193   AU        0.646328    0.750258    0.604037     0.007504
PT3194   PT        0.294948    0.158024    0.643717     0.004505
PT3195   PT        0.329065    0.158106    0.681706     0.004505
AU3196   AU        0.359943    0.160653    0.643203     0.007504
AU3197   AU        0.393919    0.127350    0.644210     0.007504
AU3198   AU        0.397963    0.159750    0.681189     0.007504
PT3199   PT        0.466428    0.126319    0.709202     0.004505
PT3200   PT        0.431673    0.159643    0.644727     0.004505
PT3201   PT        0.466230    0.125944    0.640450     0.004505
PT3202   PT        0.468978    0.158002    0.679065     0.004505
PT3203   PT        0.504877    0.125944    0.677213     0.004505
AU3204   AU        0.500663    0.158825    0.642218     0.007504
AU3205   AU        0.537382    0.129265    0.641548     0.007504
PT3206   PT        0.537040    0.159691    0.678916     0.004505
PT3207   PT        0.570128    0.163855    0.642100     0.004505
AU3208   AU        0.607511    0.157263    0.676317     0.007504
PT3209   PT        0.646058    0.158154    0.642360     0.004505
PT3210   PT        0.221957    0.222409    0.640376     0.004505
AU3211   AU        0.256607    0.193232    0.639939     0.007504
AU3212   AU        0.256712    0.222726    0.675519     0.007504
AU3213   AU        0.290700    0.188894    0.678021     0.007504
PT3214   PT        0.292540    0.225447    0.642191     0.004505
PT3215   PT        0.324483    0.195214    0.640187     0.004505
PT3216   PT        0.327998    0.224629    0.675998     0.004505
AU3217   AU        0.360959    0.192768    0.677287     0.007504
PT3218   PT        0.361908    0.225957    0.641434     0.004505
PT3219   PT        0.395170    0.193348    0.642656     0.004505
AU3220   AU        0.396467    0.224469    0.675562     0.007504
AU3221   AU        0.434254    0.191512    0.681553     0.007504
PT3222   PT        0.431271    0.223982    0.641347     0.004505
AU3223   AU        0.465584    0.193165    0.642442     0.007504
AU3224   AU        0.466460    0.224085    0.679101     0.007504
PT3225   PT        0.503578    0.191844    0.678686     0.004505
AU3226   AU        0.499995    0.224686    0.642726     0.007504
PT3227   PT        0.534630    0.192178    0.641893     0.004505
AU3228   AU        0.539264    0.224134    0.678688     0.007504
AU3229   AU        0.571399    0.192748    0.678516     0.007504
PT3230   PT        0.571677    0.221862    0.639583     0.004505
PT3231   PT        0.608629    0.190319    0.642191     0.004505
AU3232   AU        0.607093    0.222755    0.676919     0.007504
AU3233   AU        0.642150    0.188357    0.678780     0.007504
AU3234   AU        0.642998    0.221874    0.643927     0.007504
AU3235   AU        0.680733    0.188549    0.643151     0.007504
AU3236   AU        0.679051    0.220364    0.675952     0.007504
AU3237   AU        0.716457    0.218751    0.641384     0.007504
PT3238   PT        0.145878    0.252001    0.683615     0.004505
AU3239   AU        0.184185    0.253099    0.643141     0.007504
AU3240   AU        0.183158    0.283333    0.679683     0.007504
PT3241   PT        0.220201    0.255174    0.676435     0.004505
PT3242   PT        0.221147    0.286006    0.640362     0.004505
AU3243   AU        0.255622    0.255041    0.641726     0.007504
AU3244   AU        0.257217    0.284335    0.677013     0.007504
AU3245   AU        0.291953    0.254212    0.677119     0.007504
AU3246   AU        0.289999    0.286579    0.642306     0.007504
AU3247   AU        0.327458    0.256256    0.641219     0.007504
PT3248   PT        0.326220    0.285894    0.675785     0.004505
PT3249   PT        0.362340    0.254889    0.678006     0.004505
AU3250   AU        0.361822    0.286533    0.640460     0.007504
AU3251   AU        0.395045    0.256088    0.643658     0.007504
AU3252   AU        0.397957    0.285662    0.677845     0.007504
AU3253   AU        0.433559    0.255260    0.679299     0.007504
AU3254   AU        0.433185    0.286753    0.641767     0.007504
PT3255   PT        0.465682    0.254516    0.641245     0.004505
AU3256   AU        0.466819    0.283951    0.676664     0.007504
AU3257   AU        0.501479    0.253148    0.677625     0.007504
PT3258   PT        0.500448    0.285207    0.642632     0.004505
PT3259   PT        0.535383    0.254042    0.643497     0.004505
PT3260   PT        0.536640    0.287203    0.676257     0.004505
AU3261   AU        0.573086    0.255636    0.677341     0.007504
AU3262   AU        0.573121    0.286712    0.641913     0.007504
PT3263   PT        0.609865    0.252598    0.642577     0.004505
PT3264   PT        0.609052    0.286927    0.677026     0.004505
AU3265   AU        0.644393    0.251201    0.679940     0.007504
AU3266   AU        0.643122    0.286243    0.640791     0.007504
AU3267   AU        0.677747    0.252946    0.642622     0.007504
PT3268   PT        0.677020    0.283411    0.676391     0.004505
AU3269   AU        0.713260    0.252231    0.676916     0.007504
AU3270   AU        0.712599    0.286096    0.640908     0.007504
AU3271   AU        0.752597    0.251366    0.639247     0.007504
AU3272   AU        0.748396    0.284267    0.676871     0.007504
AU3273   AU        0.786276    0.287226    0.642143     0.007504
PT3274   PT        0.146952    0.317545    0.679529     0.004505
PT3275   PT        0.146632    0.346673    0.642432     0.004505
AU3276   AU        0.186216    0.314393    0.641020     0.007504
AU3277   AU        0.185034    0.344760    0.676241     0.007504
PT3278   PT        0.221501    0.314386    0.676055     0.004505
AU3279   AU        0.219615    0.346320    0.642161     0.007504
AU3280   AU        0.257542    0.315809    0.641748     0.007504
PT3281   PT        0.257531    0.345944    0.677945     0.004505
AU3282   AU        0.290451    0.315830    0.678341     0.007504
PT3283   PT        0.293213    0.348219    0.641263     0.004505
PT3284   PT        0.324996    0.316394    0.641035     0.004505
AU3285   AU        0.327523    0.347088    0.676289     0.007504
PT3286   PT        0.362099    0.317037    0.675514     0.004505
PT3287   PT        0.361205    0.347793    0.641717     0.004505
AU3288   AU        0.397839    0.315290    0.640687     0.007504
AU3289   AU        0.396855    0.346392    0.675813     0.007504
PT3290   PT        0.430114    0.315978    0.678846     0.004505
PT3291   PT        0.433108    0.348411    0.642124     0.004505
AU3292   AU        0.467525    0.317182    0.643861     0.007504
PT3293   PT        0.468196    0.347849    0.677264     0.004505
PT3294   PT        0.501533    0.317570    0.676390     0.004505
PT3295   PT        0.502926    0.346796    0.642061     0.004505
AU3296   AU        0.539846    0.317244    0.643364     0.007504
AU3297   AU        0.537180    0.347873    0.676861     0.007504
PT3298   PT        0.572468    0.317788    0.676636     0.004505
AU3299   AU        0.572570    0.347856    0.642378     0.007504
PT3300   PT        0.607561    0.318206    0.640791     0.004505
AU3301   AU        0.608127    0.346952    0.678280     0.007504
AU3302   AU        0.645238    0.316828    0.678758     0.007504
PT3303   PT        0.645364    0.349243    0.642107     0.004505
PT3304   PT        0.680033    0.317565    0.641719     0.004505
AU3305   AU        0.678785    0.347732    0.675968     0.007504
AU3306   AU        0.714011    0.315117    0.677508     0.007504
AU3307   AU        0.715691    0.347979    0.640779     0.007504
PT3308   PT        0.747223    0.317183    0.640914     0.004505
AU3309   AU        0.750617    0.346676    0.676309     0.007504
PT3310   PT        0.782186    0.314061    0.680334     0.004505
AU3311   AU        0.786037    0.345807    0.641402     0.007504
AU3312   AU        0.114164    0.377140    0.642052     0.007504
AU3313   AU        0.111815    0.407410    0.679865     0.007504
AU3314   AU        0.150274    0.378454    0.678805     0.007504
AU3315   AU        0.148217    0.407567    0.643231     0.007504
PT3316   PT        0.183415    0.376451    0.642165     0.004505
PT3317   PT        0.184001    0.406316    0.679299     0.004505
AU3318   AU        0.220536    0.377821    0.677498     0.007504
PT3319   PT        0.221000    0.407805    0.642714     0.004505
AU3320   AU        0.256950    0.378654    0.643086     0.007504
PT3321   PT        0.256932    0.409225    0.677242     0.004505
PT3322   PT        0.292019    0.377730    0.676036     0.004505
PT3323   PT        0.290162    0.409362    0.640038     0.004505
AU3324   AU        0.327202    0.378245    0.641999     0.007504
PT3325   PT        0.326032    0.408335    0.675636     0.004505
PT3326   PT        0.361002    0.377666    0.676122     0.004505
PT3327   PT        0.361071    0.408049    0.639717     0.004505
PT3328   PT        0.396422    0.377856    0.640900     0.004505
PT3329   PT        0.395172    0.410702    0.676767     0.004505
PT3330   PT        0.431401    0.377716    0.677175     0.004505
PT3331   PT        0.431277    0.407972    0.642170     0.004505
PT3332   PT        0.467909    0.376609    0.641680     0.004505
PT3333   PT        0.465370    0.408151    0.674297     0.004505
PT3334   PT        0.501809    0.379042    0.676551     0.004505
PT3335   PT        0.503107    0.408239    0.642500     0.004505
AU3336   AU        0.537414    0.377738    0.642207     0.007504
AU3337   AU        0.535996    0.408846    0.676580     0.007504
PT3338   PT        0.572685    0.378333    0.678167     0.004505
PT3339   PT        0.572909    0.409765    0.642836     0.004505
AU3340   AU        0.607695    0.377912    0.642454     0.007504
PT3341   PT        0.605706    0.410934    0.676848     0.004505
PT3342   PT        0.641817    0.379624    0.676420     0.004505
AU3343   AU        0.643449    0.408416    0.642008     0.007504
AU3344   AU        0.678936    0.379285    0.644222     0.007504
AU3345   AU        0.676657    0.410807    0.678239     0.007504
AU3346   AU        0.716034    0.378501    0.675369     0.007504
AU3347   AU        0.712256    0.410079    0.643999     0.007504
AU3348   AU        0.750382    0.377259    0.640919     0.007504
PT3349   PT        0.750736    0.410601    0.678440     0.004505
PT3350   PT        0.785598    0.378996    0.676915     0.004505
PT3351   PT        0.788970    0.408906    0.641949     0.004505
AU3352   AU        0.823130    0.377585    0.644939     0.007504
AU3353   AU        0.820341    0.408798    0.681808     0.007504
AU3354   AU        0.113883    0.439348    0.645714     0.007504
AU3355   AU        0.110446    0.470531    0.683461     0.007504
AU3356   AU        0.149270    0.439862    0.678631     0.007504
AU3357   AU        0.151288    0.470744    0.643751     0.007504
PT3358   PT        0.183741    0.435687    0.644137     0.004505
AU3359   AU        0.187353    0.470099    0.679699     0.007504
AU3360   AU        0.222431    0.438547    0.678293     0.007504
PT3361   PT        0.221153    0.468686    0.642279     0.004505
AU3362   AU        0.256650    0.440350    0.642449     0.007504
AU3363   AU        0.257343    0.470687    0.676949     0.007504
AU3364   AU        0.291643    0.440011    0.677492     0.007504
AU3365   AU        0.292674    0.470661    0.643681     0.007504
AU3366   AU        0.326937    0.439509    0.641383     0.007504
AU3367   AU        0.326365    0.470619    0.676886     0.007504
PT3368   PT        0.361550    0.439753    0.677463     0.004505
PT3369   PT        0.360829    0.471095    0.641854     0.004505
AU3370   AU        0.395572    0.439125    0.640315     0.007504
AU3371   AU        0.396311    0.469453    0.675479     0.007504
PT3372   PT        0.430646    0.439674    0.676314     0.004505
PT3373   PT        0.432940    0.469436    0.640139     0.004505
PT3374   PT        0.467174    0.439263    0.640876     0.004505
PT3375   PT        0.465304    0.468729    0.676503     0.004505
PT3376   PT        0.501855    0.438684    0.676059     0.004505
AU3377   AU        0.501603    0.469874    0.642962     0.007504
PT3378   PT        0.535587    0.439249    0.642127     0.004505
PT3379   PT        0.536711    0.469824    0.676265     0.004505
PT3380   PT        0.569888    0.439655    0.675794     0.004505
PT3381   PT        0.570063    0.470396    0.640937     0.004505
PT3382   PT        0.607487    0.439115    0.640390     0.004505
PT3383   PT        0.605161    0.470576    0.676670     0.004505
AU3384   AU        0.641718    0.440155    0.675516     0.007504
PT3385   PT        0.641856    0.469216    0.641962     0.004505
PT3386   PT        0.675474    0.440571    0.642456     0.004505
AU3387   AU        0.679502    0.469427    0.677202     0.007504
AU3388   AU        0.717281    0.441348    0.682005     0.007504
PT3389   PT        0.712928    0.471713    0.641994     0.004505
PT3390   PT        0.748272    0.441041    0.640559     0.004505
AU3391   AU        0.751393    0.472004    0.680129     0.007504
PT3392   PT        0.788101    0.439462    0.676066     0.004505
AU3393   AU        0.786523    0.470871    0.640901     0.007504
PT3394   PT        0.825742    0.441906    0.644541     0.004505
PT3395   PT        0.897524    0.530196    0.679854     0.004505
AU3396   AU        0.114209    0.500714    0.644004     0.007504
AU3397   AU        0.150085    0.501920    0.681701     0.007504
AU3398   AU        0.152687    0.531201    0.645058     0.007504
AU3399   AU        0.183670    0.499390    0.642463     0.007504
PT3400   PT        0.187514    0.532445    0.679350     0.004505
AU3401   AU        0.220316    0.500709    0.677969     0.007504
AU3402   AU        0.222186    0.530986    0.642162     0.007504
AU3403   AU        0.255937    0.500630    0.643081     0.007504
AU3404   AU        0.254611    0.533906    0.678046     0.007504
PT3405   PT        0.291566    0.499373    0.677947     0.004505
AU3406   AU        0.290852    0.531480    0.641359     0.007504
AU3407   AU        0.325965    0.502559    0.644002     0.007504
AU3408   AU        0.325290    0.532585    0.678841     0.007504
PT3409   PT        0.360789    0.501362    0.675709     0.004505
AU3410   AU        0.360047    0.532280    0.641043     0.007504
PT3411   PT        0.397286    0.502016    0.641031     0.004505
PT3412   PT        0.395667    0.531066    0.675020     0.004505
PT3413   PT        0.432504    0.501941    0.676916     0.004505
PT3414   PT        0.431248    0.532463    0.642254     0.004505
PT3415   PT        0.466110    0.501151    0.641008     0.004505
PT3416   PT        0.466440    0.532059    0.675758     0.004505
PT3417   PT        0.500234    0.500861    0.675900     0.004505
PT3418   PT        0.501973    0.530729    0.641274     0.004505
PT3419   PT        0.535650    0.500541    0.641995     0.004505
PT3420   PT        0.535809    0.532063    0.676229     0.004505
AU3421   AU        0.570929    0.501763    0.675315     0.007504
PT3422   PT        0.570872    0.532806    0.640724     0.004505
AU3423   AU        0.606673    0.500249    0.641926     0.007504
PT3424   PT        0.605475    0.531737    0.675819     0.004505
PT3425   PT        0.642747    0.500761    0.676193     0.004505
PT3426   PT        0.641325    0.531527    0.643654     0.004505
AU3427   AU        0.678072    0.502820    0.643055     0.007504
PT3428   PT        0.677782    0.531437    0.675657     0.004505
PT3429   PT        0.713658    0.499896    0.677212     0.004505
AU3430   AU        0.712859    0.530839    0.640656     0.007504
AU3431   AU        0.747466    0.501378    0.643113     0.007504
PT3432   PT        0.749574    0.532139    0.678182     0.004505
PT3433   PT        0.785030    0.501454    0.678655     0.004505
AU3434   AU        0.787181    0.530966    0.642878     0.007504
PT3435   PT        0.820160    0.500849    0.643153     0.004505
AU3436   AU        0.148628    0.563056    0.677600     0.007504
PT3437   PT        0.148148    0.623492    0.684123     0.004505
PT3438   PT        0.187392    0.561980    0.641599     0.004505
AU3439   AU        0.183533    0.592919    0.680694     0.007504
PT3440   PT        0.220002    0.563617    0.677126     0.004505
AU3441   AU        0.219495    0.594395    0.643081     0.007504
AU3442   AU        0.256223    0.562881    0.640435     0.007504
PT3443   PT        0.255147    0.594080    0.679293     0.004505
AU3444   AU        0.289895    0.562415    0.677016     0.007504
AU3445   AU        0.290578    0.593834    0.641113     0.007504
PT3446   PT        0.326306    0.563226    0.643030     0.004505
AU3447   AU        0.326058    0.593384    0.676335     0.007504
PT3448   PT        0.361617    0.560944    0.677492     0.004505
AU3449   AU        0.359846    0.593217    0.643117     0.007504
PT3450   PT        0.396362    0.563456    0.640271     0.004505
AU3451   AU        0.395881    0.593991    0.675632     0.007504
PT3452   PT        0.430538    0.563614    0.677217     0.004505
AU3453   AU        0.431334    0.593416    0.639651     0.007504
PT3454   PT        0.467555    0.562280    0.641176     0.004505
AU3455   AU        0.465155    0.593030    0.674891     0.007504
AU3456   AU        0.501994    0.563408    0.675304     0.007504
PT3457   PT        0.502256    0.593520    0.641051     0.004505
PT3458   PT        0.536890    0.563609    0.641100     0.004505
PT3459   PT        0.535671    0.594513    0.676586     0.004505
AU3460   AU        0.570699    0.562695    0.676668     0.007504
AU3461   AU        0.572816    0.594286    0.640263     0.007504
PT3462   PT        0.606266    0.563797    0.641783     0.004505
AU3463   AU        0.606291    0.593057    0.676841     0.007504
AU3464   AU        0.641868    0.562245    0.674973     0.007504
AU3465   AU        0.640832    0.594781    0.640712     0.007504
AU3466   AU        0.676163    0.563072    0.641138     0.007504
AU3467   AU        0.681206    0.595296    0.676185     0.007504
AU3468   AU        0.710977    0.563135    0.676967     0.007504
PT3469   PT        0.712271    0.594421    0.639337     0.004505
PT3470   PT        0.749549    0.562679    0.641355     0.004505
AU3471   AU        0.746416    0.594065    0.676080     0.007504
PT3472   PT        0.783469    0.564961    0.676591     0.004505
PT3473   PT        0.785124    0.594262    0.638564     0.004505
AU3474   AU        0.182599    0.624089    0.643814     0.007504
AU3475   AU        0.219545    0.626086    0.680765     0.007504
AU3476   AU        0.221734    0.655826    0.641189     0.007504
PT3477   PT        0.255253    0.623558    0.642848     0.004505
AU3478   AU        0.256032    0.656927    0.676909     0.007504
PT3479   PT        0.289805    0.623621    0.677867     0.004505
PT3480   PT        0.290866    0.653282    0.644632     0.004505
AU3481   AU        0.326700    0.624611    0.641455     0.007504
AU3482   AU        0.327246    0.656207    0.678907     0.007504
AU3483   AU        0.360824    0.624890    0.676637     0.007504
AU3484   AU        0.361430    0.653333    0.640304     0.007504
AU3485   AU        0.397136    0.624558    0.641958     0.007504
AU3486   AU        0.397003    0.654091    0.675343     0.007504
PT3487   PT        0.430969    0.622772    0.675257     0.004505
PT3488   PT        0.432636    0.655174    0.641400     0.004505
PT3489   PT        0.467219    0.624577    0.641347     0.004505
AU3490   AU        0.467751    0.656988    0.676648     0.007504
PT3491   PT        0.502066    0.623291    0.675512     0.004505
AU3492   AU        0.500711    0.656215    0.640512     0.007504
PT3493   PT        0.535344    0.623237    0.640169     0.004505
AU3494   AU        0.536560    0.655020    0.675911     0.007504
PT3495   PT        0.571450    0.623829    0.675300     0.004505
PT3496   PT        0.572486    0.654321    0.639949     0.004505
AU3497   AU        0.606311    0.625256    0.640317     0.007504
PT3498   PT        0.608160    0.654905    0.675702     0.004505
AU3499   AU        0.643389    0.623284    0.675516     0.007504
AU3500   AU        0.642706    0.654462    0.642676     0.007504
AU3501   AU        0.678930    0.623660    0.641351     0.007504
PT3502   PT        0.679350    0.656013    0.676712     0.004505
PT3503   PT        0.716760    0.626911    0.677343     0.004505
AU3504   AU        0.715733    0.656640    0.641923     0.007504
AU3505   AU        0.751562    0.627396    0.640361     0.007504
PT3506   PT        0.258660    0.687769    0.643942     0.004505
AU3507   AU        0.291859    0.688414    0.678921     0.007504
AU3508   AU        0.293324    0.718885    0.641112     0.007504
PT3509   PT        0.325756    0.686559    0.640636     0.004505
AU3510   AU        0.326512    0.719031    0.678572     0.007504
AU3511   AU        0.363606    0.686466    0.677124     0.007504
AU3512   AU        0.362182    0.718434    0.643075     0.007504
PT3513   PT        0.396822    0.684179    0.640998     0.004505
PT3514   PT        0.394127    0.719178    0.680532     0.004505
AU3515   AU        0.432402    0.687951    0.676616     0.007504
PT3516   PT        0.429995    0.716634    0.642604     0.004505
AU3517   AU        0.466798    0.685047    0.640070     0.007504
PT3518   PT        0.467573    0.721275    0.674339     0.004505
AU3519   AU        0.505173    0.685735    0.678125     0.007504
PT3520   PT        0.503143    0.715370    0.641017     0.004505
AU3521   AU        0.536047    0.685540    0.641520     0.007504
AU3522   AU        0.540170    0.719822    0.676117     0.007504
PT3523   PT        0.571865    0.684432    0.676636     0.004505
PT3524   PT        0.571762    0.719204    0.640763     0.004505
PT3525   PT        0.607106    0.686438    0.643180     0.004505
AU3526   AU        0.609248    0.719005    0.673938     0.007504
AU3527   AU        0.644267    0.688141    0.679582     0.007504
AU3528   AU        0.646428    0.718583    0.641417     0.007504
PT3529   PT        0.676146    0.685449    0.642380     0.004505
PT3530   PT        0.397620    0.748514    0.638118     0.004505
AU3531   AU        0.430843    0.747091    0.676744     0.007504
AU3532   AU        0.469610    0.747482    0.644634     0.007504
AU3533   AU        0.504613    0.751956    0.679898     0.007504
AU3534   AU        0.534286    0.748621    0.641998     0.007504
AU3535   AU        0.435090    0.160937    0.717364     0.007504
PT3536   PT        0.502670    0.156370    0.714369     0.004505
AU3537   AU        0.291009    0.223202    0.711689     0.007504
PT3538   PT        0.326802    0.191415    0.712729     0.004505
PT3539   PT        0.327042    0.220397    0.748831     0.004505
PT3540   PT        0.362714    0.224288    0.715956     0.004505
AU3541   AU        0.398696    0.189490    0.715812     0.007504
AU3542   AU        0.398006    0.222715    0.750702     0.007504
AU3543   AU        0.430334    0.190176    0.752116     0.007504
PT3544   PT        0.434876    0.221008    0.716431     0.004505
PT3545   PT        0.471182    0.189603    0.714293     0.004505
AU3546   AU        0.465288    0.221611    0.751926     0.007504
AU3547   AU        0.539508    0.146341    0.743807     0.007504
AU3548   AU        0.501156    0.224040    0.716254     0.007504
PT3549   PT        0.538658    0.190083    0.716906     0.004505
PT3550   PT        0.540277    0.222612    0.749213     0.004505
PT3551   PT        0.574216    0.224047    0.711944     0.004505
PT3552   PT        0.605753    0.191489    0.715822     0.004505
AU3553   AU        0.607006    0.226058    0.746969     0.007504
PT3554   PT        0.643674    0.221269    0.715180     0.004505
AU3555   AU        0.221428    0.286575    0.713997     0.007504
PT3556   PT        0.214813    0.258301    0.822949     0.004505
AU3557   AU        0.256129    0.284442    0.748937     0.007504
AU3558   AU        0.295174    0.254703    0.751045     0.007504
AU3559   AU        0.291032    0.286826    0.712175     0.007504
AU3560   AU        0.326246    0.253183    0.712241     0.007504
AU3561   AU        0.327093    0.286000    0.748463     0.007504
PT3562   PT        0.361042    0.256754    0.748089     0.004505
AU3563   AU        0.362124    0.287144    0.712131     0.007504
PT3564   PT        0.396526    0.252770    0.712580     0.004505
PT3565   PT        0.398602    0.285909    0.749742     0.004505
PT3566   PT        0.432265    0.253926    0.748013     0.004505
PT3567   PT        0.431820    0.284577    0.715090     0.004505
AU3568   AU        0.470063    0.255593    0.713787     0.007504
PT3569   PT        0.467259    0.285428    0.748098     0.004505
AU3570   AU        0.503268    0.256146    0.749564     0.007504
PT3571   PT        0.502113    0.285122    0.711248     0.004505
PT3572   PT        0.537202    0.256187    0.712367     0.004505
AU3573   AU        0.538715    0.285847    0.746056     0.007504
AU3574   AU        0.572821    0.256361    0.746366     0.007504
AU3575   AU        0.574289    0.286411    0.713169     0.007504
AU3576   AU        0.608296    0.256509    0.712077     0.007504
AU3577   AU        0.610737    0.284561    0.750076     0.007504
AU3578   AU        0.645518    0.252319    0.753510     0.007504
PT3579   PT        0.646492    0.283539    0.715379     0.004505
AU3580   AU        0.681910    0.248360    0.715204     0.007504
PT3581   PT        0.678319    0.283169    0.751436     0.004505
PT3582   PT        0.712448    0.284145    0.711930     0.004505
AU3583   AU        0.185104    0.315402    0.714749     0.007504
PT3584   PT        0.219904    0.316508    0.751003     0.004505
PT3585   PT        0.221926    0.345891    0.710467     0.004505
PT3586   PT        0.254816    0.315389    0.715032     0.004505
PT3587   PT        0.256733    0.347913    0.745449     0.004505
PT3588   PT        0.290763    0.314790    0.750828     0.004505
AU3589   AU        0.292955    0.347738    0.712796     0.007504
AU3590   AU        0.327301    0.317289    0.711569     0.007504
AU3591   AU        0.327799    0.345220    0.751118     0.007504
PT3592   PT        0.363251    0.316535    0.748250     0.004505
AU3593   AU        0.361294    0.348047    0.711083     0.007504
PT3594   PT        0.397170    0.317906    0.713526     0.004505
AU3595   AU        0.395726    0.348078    0.746873     0.007504
PT3596   PT        0.431455    0.315796    0.747412     0.004505
AU3597   AU        0.430991    0.346289    0.712654     0.007504
AU3598   AU        0.468699    0.316409    0.711967     0.007504
AU3599   AU        0.466964    0.347304    0.746566     0.007504
PT3600   PT        0.505141    0.315378    0.748044     0.004505
PT3601   PT        0.501893    0.347180    0.712879     0.004505
PT3602   PT        0.537393    0.317428    0.711591     0.004505
AU3603   AU        0.538081    0.346635    0.748031     0.007504
AU3604   AU        0.571998    0.317702    0.746108     0.007504
AU3605   AU        0.571851    0.347631    0.711239     0.007504
PT3606   PT        0.610530    0.316683    0.713056     0.004505
AU3607   AU        0.606693    0.348824    0.748465     0.007504
AU3608   AU        0.643759    0.314422    0.749725     0.007504
AU3609   AU        0.642595    0.347366    0.712406     0.007504
AU3610   AU        0.678203    0.317351    0.713523     0.007504
AU3611   AU        0.679115    0.347033    0.745641     0.007504
PT3612   PT        0.714767    0.313330    0.751322     0.004505
AU3613   AU        0.713903    0.347405    0.710945     0.007504
AU3614   AU        0.749420    0.314745    0.714163     0.007504
PT3615   PT        0.077101    0.407237    0.718697     0.004505
PT3616   PT        0.185686    0.374962    0.713812     0.004505
AU3617   AU        0.182719    0.405937    0.750575     0.007504
AU3618   AU        0.222537    0.377301    0.748175     0.007504
PT3619   PT        0.220043    0.406643    0.711629     0.004505
PT3620   PT        0.258727    0.378387    0.711795     0.004505
PT3621   PT        0.256770    0.408432    0.746495     0.004505
PT3622   PT        0.293057    0.377963    0.748767     0.004505
PT3623   PT        0.293691    0.409314    0.712425     0.004505
PT3624   PT        0.328242    0.377962    0.712296     0.004505
PT3625   PT        0.326442    0.409334    0.745947     0.004505
AU3626   AU        0.361417    0.377898    0.745456     0.007504
AU3627   AU        0.362562    0.408503    0.711575     0.007504
PT3628   PT        0.396357    0.377229    0.711310     0.004505
PT3629   PT        0.396391    0.407857    0.747358     0.004505
AU3630   AU        0.432244    0.377301    0.745465     0.007504
AU3631   AU        0.428338    0.409994    0.711638     0.007504
PT3632   PT        0.465488    0.379404    0.711569     0.004505
AU3633   AU        0.467573    0.408548    0.749502     0.007504
PT3634   PT        0.501705    0.377687    0.748370     0.004505
PT3635   PT        0.500956    0.407055    0.712592     0.004505
PT3636   PT        0.537535    0.377550    0.711682     0.004505
PT3637   PT        0.536297    0.407695    0.748250     0.004505
AU3638   AU        0.573407    0.378767    0.747290     0.007504
AU3639   AU        0.572018    0.410143    0.712794     0.007504
PT3640   PT        0.607650    0.377948    0.711302     0.004505
PT3641   PT        0.607548    0.408043    0.747488     0.004505
AU3642   AU        0.643010    0.377335    0.747401     0.007504
AU3643   AU        0.640861    0.409289    0.712327     0.007504
AU3644   AU        0.678323    0.377209    0.711101     0.007504
AU3645   AU        0.678033    0.411409    0.746853     0.007504
PT3646   PT        0.714294    0.378870    0.748492     0.004505
AU3647   AU        0.714162    0.408690    0.713149     0.007504
AU3648   AU        0.751551    0.378918    0.711240     0.007504
AU3649   AU        0.751433    0.405602    0.749770     0.007504
AU3650   AU        0.788081    0.406329    0.718636     0.007504
PT3651   PT        0.147579    0.471015    0.715096     0.004505
AU3652   AU        0.184058    0.439591    0.712938     0.007504
AU3653   AU        0.182145    0.469772    0.750281     0.007504
AU3654   AU        0.221452    0.438287    0.747646     0.007504
AU3655   AU        0.222646    0.469836    0.712683     0.007504
AU3656   AU        0.257627    0.439047    0.711924     0.007504
AU3657   AU        0.257088    0.471458    0.748652     0.007504
AU3658   AU        0.291201    0.439123    0.747588     0.007504
AU3659   AU        0.293701    0.469828    0.711829     0.007504
PT3660   PT        0.326757    0.439807    0.713265     0.004505
AU3661   AU        0.328222    0.470283    0.748633     0.007504
PT3662   PT        0.361919    0.440318    0.744864     0.004505
PT3663   PT        0.361785    0.470238    0.710873     0.004505
AU3664   AU        0.396299    0.439511    0.712193     0.007504
AU3665   AU        0.396998    0.469012    0.747362     0.007504
AU3666   AU        0.431851    0.438492    0.747687     0.007504
PT3667   PT        0.431801    0.469309    0.712376     0.004505
AU3668   AU        0.465891    0.437290    0.711581     0.007504
PT3669   PT        0.466772    0.470766    0.746450     0.004505
PT3670   PT        0.501639    0.440618    0.745225     0.004505
PT3671   PT        0.501730    0.470198    0.711113     0.004505
PT3672   PT        0.536617    0.439300    0.710336     0.004505
PT3673   PT        0.537538    0.471386    0.746365     0.004505
AU3674   AU        0.570081    0.440548    0.746495     0.007504
PT3675   PT        0.571656    0.471876    0.711774     0.004505
PT3676   PT        0.604799    0.439558    0.711980     0.004505
AU3677   AU        0.605044    0.471006    0.745596     0.007504
PT3678   PT        0.640119    0.441074    0.747488     0.004505
PT3679   PT        0.641731    0.471287    0.709865     0.004505
AU3680   AU        0.676286    0.440941    0.714428     0.007504
AU3681   AU        0.677377    0.470685    0.747725     0.007504
AU3682   AU        0.717235    0.438948    0.749465     0.007504
AU3683   AU        0.714456    0.471988    0.716208     0.007504
AU3684   AU        0.754088    0.439484    0.714580     0.007504
PT3685   PT        0.752309    0.468860    0.751055     0.004505
PT3686   PT        0.790258    0.470426    0.713779     0.004505
PT3687   PT        0.187329    0.498941    0.714632     0.004505
AU3688   AU        0.219369    0.499481    0.751280     0.007504
PT3689   PT        0.219579    0.531423    0.716069     0.004505
AU3690   AU        0.255999    0.500472    0.710810     0.007504
AU3691   AU        0.255703    0.530962    0.749385     0.007504
AU3692   AU        0.291894    0.500097    0.747291     0.007504
AU3693   AU        0.290188    0.531473    0.712312     0.007504
PT3694   PT        0.327785    0.501320    0.711893     0.004505
AU3695   AU        0.326494    0.531709    0.747105     0.007504
PT3696   PT        0.362847    0.499699    0.747117     0.004505
AU3697   AU        0.361330    0.532814    0.712206     0.007504
PT3698   PT        0.394834    0.501104    0.711666     0.004505
PT3699   PT        0.397307    0.531784    0.746493     0.004505
AU3700   AU        0.431100    0.501352    0.745929     0.007504
PT3701   PT        0.429635    0.531450    0.710287     0.004505
AU3702   AU        0.465958    0.500092    0.710212     0.007504
PT3703   PT        0.464990    0.531519    0.743579     0.004505
PT3704   PT        0.499921    0.501271    0.744548     0.004505
PT3705   PT        0.500900    0.531878    0.709644     0.004505
PT3706   PT        0.536835    0.501375    0.710094     0.004505
PT3707   PT        0.536460    0.531911    0.746637     0.004505
AU3708   AU        0.571416    0.502929    0.745920     0.007504
PT3709   PT        0.570326    0.532311    0.710225     0.004505
AU3710   AU        0.607793    0.501920    0.711650     0.007504
PT3711   PT        0.605519    0.533407    0.746132     0.004505
PT3712   PT        0.642435    0.500555    0.747915     0.004505
PT3713   PT        0.640939    0.532318    0.711685     0.004505
PT3714   PT        0.675754    0.502018    0.711374     0.004505
AU3715   AU        0.675601    0.533202    0.745871     0.007504
AU3716   AU        0.716010    0.502124    0.749901     0.007504
PT3717   PT        0.713776    0.532978    0.713538     0.004505
AU3718   AU        0.752599    0.502165    0.717375     0.007504
AU3719   AU        0.185527    0.560938    0.716273     0.007504
AU3720   AU        0.218083    0.562447    0.752772     0.007504
AU3721   AU        0.221283    0.590582    0.715839     0.007504
AU3722   AU        0.256303    0.562873    0.714231     0.007504
AU3723   AU        0.256824    0.592418    0.750582     0.007504
PT3724   PT        0.290918    0.563232    0.748667     0.004505
PT3725   PT        0.292835    0.592754    0.714334     0.004505
PT3726   PT        0.325432    0.561245    0.713201     0.004505
PT3727   PT        0.326092    0.594577    0.749173     0.004505
AU3728   AU        0.362354    0.563544    0.745908     0.007504
PT3729   PT        0.361466    0.592879    0.709493     0.004505
AU3730   AU        0.395250    0.561900    0.711630     0.007504
PT3731   PT        0.396967    0.593696    0.746008     0.004505
PT3732   PT        0.431804    0.562186    0.746848     0.004505
PT3733   PT        0.432049    0.593572    0.710912     0.004505
AU3734   AU        0.465660    0.561865    0.709938     0.007504
AU3735   AU        0.466678    0.592781    0.746603     0.007504
PT3736   PT        0.501463    0.563009    0.743700     0.004505
PT3737   PT        0.501898    0.592407    0.709978     0.004505
AU3738   AU        0.536379    0.561301    0.711789     0.007504
PT3739   PT        0.535765    0.592934    0.744641     0.004505
PT3740   PT        0.569584    0.562033    0.745120     0.004505
PT3741   PT        0.569243    0.592930    0.710253     0.004505
PT3742   PT        0.606609    0.561502    0.711222     0.004505
PT3743   PT        0.606752    0.592948    0.744116     0.004505
AU3744   AU        0.641971    0.564653    0.744573     0.007504
PT3745   PT        0.641073    0.593261    0.710199     0.004505
PT3746   PT        0.676314    0.563789    0.710961     0.004505
AU3747   AU        0.676464    0.595877    0.750603     0.007504
AU3748   AU        0.712914    0.562216    0.748539     0.007504
PT3749   PT        0.711233    0.595629    0.716618     0.004505
PT3750   PT        0.747098    0.563735    0.712799     0.004505
AU3751   AU        0.255626    0.623888    0.713572     0.007504
AU3752   AU        0.289364    0.624203    0.750359     0.007504
AU3753   AU        0.289149    0.656184    0.712973     0.007504
AU3754   AU        0.324622    0.625726    0.712382     0.007504
PT3755   PT        0.325637    0.654564    0.748036     0.004505
PT3756   PT        0.362586    0.626286    0.747021     0.004505
AU3757   AU        0.362748    0.657412    0.713589     0.007504
AU3758   AU        0.395944    0.623870    0.711174     0.007504
PT3759   PT        0.396167    0.659270    0.748168     0.004505
PT3760   PT        0.429913    0.626218    0.749821     0.004505
PT3761   PT        0.430886    0.653521    0.710354     0.004505
PT3762   PT        0.466254    0.622964    0.708951     0.004505
PT3763   PT        0.467365    0.654455    0.746604     0.004505
AU3764   AU        0.500360    0.623274    0.747732     0.007504
PT3765   PT        0.503374    0.654798    0.711518     0.004505
PT3766   PT        0.534782    0.624601    0.711097     0.004505
AU3767   AU        0.536493    0.655669    0.746164     0.007504
AU3768   AU        0.570392    0.622645    0.744770     0.007504
PT3769   PT        0.570714    0.653368    0.710713     0.004505
AU3770   AU        0.606261    0.623974    0.709769     0.007504
PT3771   PT        0.605527    0.655705    0.745702     0.004505
PT3772   PT        0.639803    0.623303    0.746379     0.004505
AU3773   AU        0.641824    0.656224    0.711205     0.007504
AU3774   AU        0.676981    0.624139    0.713603     0.007504
PT3775   PT        0.328514    0.688102    0.714687     0.004505
AU3776   AU        0.399701    0.687651    0.711584     0.007504
AU3777   AU        0.432186    0.688446    0.750017     0.007504
PT3778   PT        0.436482    0.719965    0.713824     0.004505
PT3779   PT        0.468239    0.688829    0.712809     0.004505
AU3780   AU        0.501026    0.685177    0.747822     0.007504
PT3781   PT        0.505522    0.718257    0.712781     0.004505
PT3782   PT        0.540080    0.688484    0.716056     0.004505
AU3783   AU        0.605027    0.688246    0.714750     0.007504
AU3784   AU        0.429415    0.220430    0.787453     0.007504
AU3785   AU        0.504773    0.221240    0.786608     0.007504
PT3786   PT        0.292703    0.282356    0.786898     0.004505
AU3787   AU        0.361856    0.285452    0.786944     0.007504
PT3788   PT        0.399327    0.255274    0.783985     0.004505
PT3789   PT        0.396178    0.284278    0.822190     0.004505
PT3790   PT        0.433792    0.284378    0.785062     0.004505
AU3791   AU        0.469523    0.253594    0.785570     0.007504
AU3792   AU        0.466802    0.287379    0.820897     0.007504
AU3793   AU        0.504872    0.286592    0.784206     0.007504
PT3794   PT        0.539704    0.256146    0.781752     0.004505
AU3795   AU        0.587601    0.278950    0.835636     0.007504
PT3796   PT        0.574326    0.286650    0.783940     0.004505
AU3797   AU        0.642104    0.283799    0.786021     0.007504
AU3798   AU        0.289061    0.344959    0.785779     0.007504
AU3799   AU        0.326215    0.315030    0.782755     0.007504
AU3800   AU        0.323971    0.342408    0.818617     0.007504
PT3801   PT        0.363614    0.317170    0.820158     0.004505
AU3802   AU        0.363122    0.347360    0.782235     0.007504
AU3803   AU        0.399071    0.314142    0.783983     0.007504
PT3804   PT        0.398275    0.346654    0.818426     0.004505
PT3805   PT        0.430808    0.315111    0.821115     0.004505
AU3806   AU        0.430229    0.347960    0.782187     0.007504
PT3807   PT        0.466659    0.315695    0.781996     0.004505
PT3808   PT        0.467368    0.344424    0.821128     0.004505
PT3809   PT        0.506914    0.315296    0.823074     0.004505
PT3810   PT        0.500224    0.345411    0.785513     0.004505
PT3811   PT        0.537820    0.318619    0.784779     0.004505
AU3812   AU        0.536792    0.348476    0.820493     0.007504
PT3813   PT        0.575125    0.318265    0.817773     0.004505
PT3814   PT        0.572450    0.348685    0.785531     0.004505
AU3815   AU        0.607644    0.318586    0.782417     0.007504
PT3816   PT        0.608194    0.350615    0.816470     0.004505
AU3817   AU        0.642745    0.347459    0.781986     0.007504
PT3818   PT        0.223179    0.408335    0.783187     0.004505
PT3819   PT        0.256406    0.374806    0.784923     0.004505
AU3820   AU        0.292503    0.375038    0.820070     0.007504
AU3821   AU        0.289870    0.408787    0.784178     0.007504
AU3822   AU        0.327539    0.376263    0.784262     0.007504
AU3823   AU        0.326092    0.408502    0.816705     0.007504
AU3824   AU        0.357798    0.374166    0.819735     0.007504
PT3825   PT        0.360906    0.409531    0.781956     0.004505
PT3826   PT        0.396026    0.379022    0.782339     0.004505
AU3827   AU        0.395697    0.410771    0.819617     0.007504
AU3828   AU        0.432281    0.377418    0.820858     0.007504
AU3829   AU        0.433688    0.407231    0.783405     0.007504
PT3830   PT        0.465234    0.376836    0.786783     0.004505
PT3831   PT        0.466172    0.407560    0.819982     0.004505
AU3832   AU        0.499825    0.377640    0.822115     0.007504
AU3833   AU        0.500599    0.407064    0.786291     0.007504
AU3834   AU        0.535711    0.378696    0.785906     0.007504
AU3835   AU        0.538355    0.409621    0.820368     0.007504
PT3836   PT        0.575526    0.377351    0.821540     0.004505
AU3837   AU        0.572828    0.408635    0.782190     0.007504
AU3838   AU        0.607887    0.380178    0.783357     0.007504
AU3839   AU        0.608102    0.409841    0.819107     0.007504
AU3840   AU        0.644457    0.381524    0.821363     0.007504
AU3841   AU        0.644455    0.409458    0.783461     0.007504
AU3842   AU        0.676605    0.378040    0.782967     0.007504
AU3843   AU        0.714406    0.406587    0.786022     0.007504
AU3844   AU        0.220790    0.469505    0.783287     0.007504
PT3845   PT        0.256957    0.440865    0.782387     0.004505
AU3846   AU        0.290272    0.439171    0.818078     0.007504
PT3847   PT        0.292374    0.469977    0.782079     0.004505
PT3848   PT        0.324472    0.439001    0.783443     0.004505
AU3849   AU        0.325556    0.468995    0.820810     0.007504
PT3850   PT        0.360957    0.440664    0.818773     0.004505
AU3851   AU        0.361493    0.470343    0.784703     0.007504
PT3852   PT        0.396487    0.439235    0.781767     0.004505
PT3853   PT        0.397540    0.471389    0.818685     0.004505
AU3854   AU        0.429464    0.440330    0.818669     0.007504
PT3855   PT        0.430846    0.470317    0.780292     0.004505
AU3856   AU        0.466100    0.441532    0.782008     0.007504
AU3857   AU        0.467292    0.470586    0.817604     0.007504
PT3858   PT        0.503582    0.439735    0.821577     0.004505
PT3859   PT        0.502356    0.470265    0.781400     0.004505
PT3860   PT        0.533994    0.439232    0.782765     0.004505
AU3861   AU        0.535567    0.470414    0.817896     0.007504
AU3862   AU        0.570357    0.440306    0.815280     0.007504
PT3863   PT        0.571582    0.471769    0.780947     0.004505
PT3864   PT        0.606189    0.440942    0.781512     0.004505
PT3865   PT        0.606376    0.472374    0.815595     0.004505
AU3866   AU        0.641589    0.441506    0.820626     0.007504
AU3867   AU        0.641951    0.470502    0.783220     0.007504
AU3868   AU        0.678349    0.441959    0.781601     0.007504
AU3869   AU        0.714977    0.470195    0.782201     0.007504
PT3870   PT        0.256768    0.499332    0.785574     0.004505
AU3871   AU        0.288067    0.536273    0.857161     0.007504
AU3872   AU        0.290275    0.531878    0.785571     0.007504
PT3873   PT        0.326371    0.499843    0.785980     0.004505
AU3874   AU        0.323623    0.529533    0.820299     0.007504
AU3875   AU        0.361862    0.501912    0.820758     0.007504
AU3876   AU        0.362347    0.530533    0.784814     0.007504
AU3877   AU        0.398069    0.500247    0.781137     0.007504
AU3878   AU        0.395924    0.532128    0.817763     0.007504
AU3879   AU        0.430908    0.500858    0.816144     0.007504
PT3880   PT        0.431168    0.533374    0.782144     0.004505
PT3881   PT        0.465191    0.500081    0.780908     0.004505
AU3882   AU        0.467015    0.532635    0.816135     0.007504
PT3883   PT        0.501846    0.500493    0.816568     0.004505
PT3884   PT        0.500151    0.531001    0.778448     0.004505
AU3885   AU        0.535709    0.501643    0.779476     0.007504
PT3886   PT        0.535743    0.530764    0.815268     0.004505
PT3887   PT        0.570170    0.500933    0.817338     0.004505
AU3888   AU        0.572641    0.531354    0.780966     0.007504
PT3889   PT        0.605606    0.502677    0.781059     0.004505
PT3890   PT        0.604746    0.532559    0.817041     0.004505
AU3891   AU        0.640901    0.503723    0.821943     0.007504
PT3892   PT        0.640081    0.532523    0.780809     0.004505
PT3893   PT        0.678081    0.500848    0.784418     0.004505
AU3894   AU        0.286599    0.589723    0.788914     0.007504
PT3895   PT        0.326218    0.562920    0.782764     0.004505
AU3896   AU        0.362435    0.563934    0.819804     0.007504
PT3897   PT        0.363255    0.594096    0.781943     0.004505
AU3898   AU        0.396491    0.563093    0.783082     0.007504
AU3899   AU        0.396456    0.593557    0.817414     0.007504
PT3900   PT        0.432664    0.564414    0.822487     0.004505
AU3901   AU        0.432346    0.591816    0.783494     0.007504
PT3902   PT        0.467255    0.563486    0.782260     0.004505
AU3903   AU        0.467616    0.593812    0.823596     0.007504
AU3904   AU        0.501350    0.563633    0.817627     0.007504
AU3905   AU        0.505415    0.595744    0.785278     0.007504
PT3906   PT        0.535313    0.561263    0.780543     0.004505
PT3907   PT        0.538331    0.595425    0.823334     0.004505
PT3908   PT        0.570244    0.562131    0.814677     0.004505
PT3909   PT        0.570810    0.592444    0.780421     0.004505
PT3910   PT        0.606491    0.563024    0.780629     0.004505
AU3911   AU        0.640446    0.593289    0.781945     0.007504
AU3912   AU        0.382478    0.642798    0.790611     0.007504
PT3913   PT        0.429002    0.658392    0.783975     0.004505
PT3914   PT        0.466472    0.623452    0.787552     0.004505
AU3915   AU        0.501093    0.655817    0.781350     0.007504
PT3916   PT        0.540876    0.626266    0.787388     0.004505
AU3917   AU        0.429817    0.408108    0.854341     0.007504
AU3918   AU        0.469204    0.378035    0.859806     0.007504
PT3919   PT        0.501627    0.410436    0.856994     0.004505
AU3920   AU        0.394960    0.439767    0.857445     0.007504
AU3921   AU        0.430290    0.469107    0.854033     0.007504
PT3922   PT        0.465404    0.441922    0.852877     0.004505
AU3923   AU        0.500821    0.471878    0.852551     0.007504
PT3924   PT        0.539454    0.441541    0.856003     0.004505
PT3925   PT        0.465760    0.503218    0.851576     0.004505
